REMARK  Name = ../refined-set-2016/3s76/3s76_pocket.pdb
REMARK  143 active torsions:
REMARK  status: ('A' for Active; 'I' for Inactive)
REMARK    1  A    between atoms: _1  and  _3
REMARK    2  A    between atoms: _3  and  _4
REMARK    3  A    between atoms: _3  and  _6
REMARK    4  A    between atoms: _6  and  _7
REMARK    5  A    between atoms: _17  and  _19
REMARK    6  A    between atoms: _19  and  _20
REMARK    7  A    between atoms: _19  and  _22
REMARK    8  A    between atoms: _22  and  _23
REMARK    9  A    between atoms: _28  and  _29
REMARK   10  A    between atoms: _31  and  _33
REMARK   11  A    between atoms: _33  and  _34
REMARK   12  A    between atoms: _33  and  _36
REMARK   13  A    between atoms: _36  and  _37
REMARK   14  A    between atoms: _40  and  _41
REMARK   15  A    between atoms: _46  and  _48
REMARK   16  A    between atoms: _48  and  _49
REMARK   17  A    between atoms: _48  and  _51
REMARK   18  A    between atoms: _51  and  _52
REMARK   19  A    between atoms: _57  and  _59
REMARK   20  A    between atoms: _59  and  _60
REMARK   21  A    between atoms: _63  and  _65
REMARK   22  A    between atoms: _65  and  _66
REMARK   23  A    between atoms: _65  and  _68
REMARK   24  A    between atoms: _68  and  _69
REMARK   25  A    between atoms: _74  and  _76
REMARK   26  A    between atoms: _76  and  _77
REMARK   27  A    between atoms: _76  and  _79
REMARK   28  A    between atoms: _79  and  _80
REMARK   29  A    between atoms: _83  and  _85
REMARK   30  A    between atoms: _85  and  _86
REMARK   31  A    between atoms: _85  and  _88
REMARK   32  A    between atoms: _88  and  _89
REMARK   33  A    between atoms: _89  and  _90
REMARK   34  A    between atoms: _95  and  _97
REMARK   35  A    between atoms: _97  and  _98
REMARK   36  A    between atoms: _97  and  _100
REMARK   37  A    between atoms: _100  and  _101
REMARK   38  A    between atoms: _107  and  _109
REMARK   39  A    between atoms: _120  and  _123
REMARK   40  A    between atoms: _123  and  _124
REMARK   41  A    between atoms: _132  and  _133
REMARK   42  A    between atoms: _141  and  _143
REMARK   43  A    between atoms: _143  and  _144
REMARK   44  A    between atoms: _143  and  _146
REMARK   45  A    between atoms: _146  and  _147
REMARK   46  A    between atoms: _147  and  _148
REMARK   47  A    between atoms: _151  and  _153
REMARK   48  A    between atoms: _153  and  _154
REMARK   49  A    between atoms: _153  and  _156
REMARK   50  A    between atoms: _156  and  _157
REMARK   51  A    between atoms: _162  and  _164
REMARK   52  A    between atoms: _164  and  _165
REMARK   53  A    between atoms: _164  and  _167
REMARK   54  A    between atoms: _167  and  _168
REMARK   55  A    between atoms: _168  and  _169
REMARK   56  A    between atoms: _172  and  _174
REMARK   57  A    between atoms: _174  and  _175
REMARK   58  A    between atoms: _174  and  _177
REMARK   59  A    between atoms: _177  and  _178
REMARK   60  A    between atoms: _181  and  _183
REMARK   61  A    between atoms: _183  and  _184
REMARK   62  A    between atoms: _183  and  _186
REMARK   63  A    between atoms: _186  and  _187
REMARK   64  A    between atoms: _188  and  ZN_403
REMARK   65  A    between atoms: _192  and  _194
REMARK   66  A    between atoms: _194  and  _195
REMARK   67  A    between atoms: _194  and  _197
REMARK   68  A    between atoms: _197  and  _198
REMARK   69  A    between atoms: _201  and  _203
REMARK   70  A    between atoms: _203  and  _204
REMARK   71  A    between atoms: _203  and  _206
REMARK   72  A    between atoms: _209  and  _211
REMARK   73  A    between atoms: _211  and  _212
REMARK   74  A    between atoms: _211  and  _214
REMARK   75  A    between atoms: _214  and  _215
REMARK   76  A    between atoms: _220  and  _222
REMARK   77  A    between atoms: _222  and  _223
REMARK   78  A    between atoms: _222  and  _225
REMARK   79  A    between atoms: _225  and  _226
REMARK   80  A    between atoms: _232  and  _234
REMARK   81  A    between atoms: _234  and  _235
REMARK   82  A    between atoms: _234  and  _237
REMARK   83  A    between atoms: _240  and  _242
REMARK   84  A    between atoms: _242  and  _243
REMARK   85  A    between atoms: _242  and  _245
REMARK   86  A    between atoms: _245  and  _246
REMARK   87  A    between atoms: _249  and  _251
REMARK   88  A    between atoms: _251  and  _252
REMARK   89  A    between atoms: _255  and  _257
REMARK   90  A    between atoms: _257  and  _258
REMARK   91  A    between atoms: _257  and  _260
REMARK   92  A    between atoms: _263  and  _265
REMARK   93  A    between atoms: _265  and  _266
REMARK   94  A    between atoms: _265  and  _268
REMARK   95  A    between atoms: _268  and  _269
REMARK   96  A    between atoms: _272  and  _274
REMARK   97  A    between atoms: _274  and  _275
REMARK   98  A    between atoms: _277  and  _279
REMARK   99  A    between atoms: _279  and  _280
REMARK  100  A    between atoms: _279  and  _282
REMARK  101  A    between atoms: _282  and  _283
REMARK  102  A    between atoms: _285  and  _287
REMARK  103  A    between atoms: _287  and  _288
REMARK  104  A    between atoms: _287  and  _290
REMARK  105  A    between atoms: _290  and  _291
REMARK  106  A    between atoms: _294  and  _296
REMARK  107  A    between atoms: _296  and  _297
REMARK  108  A    between atoms: _296  and  _299
REMARK  109  A    between atoms: _299  and  _300
REMARK  110  A    between atoms: _303  and  _305
REMARK  111  A    between atoms: _305  and  _306
REMARK  112  A    between atoms: _305  and  _308
REMARK  113  A    between atoms: _308  and  _309
REMARK  114  A    between atoms: _313  and  _314
REMARK  115  A    between atoms: _320  and  _321
REMARK  116  A    between atoms: _326  and  _328
REMARK  117  A    between atoms: _328  and  _329
REMARK  118  A    between atoms: _328  and  _331
REMARK  119  A    between atoms: _331  and  _332
REMARK  120  A    between atoms: _335  and  _337
REMARK  121  A    between atoms: _337  and  _338
REMARK  122  A    between atoms: _337  and  _340
REMARK  123  A    between atoms: _340  and  _341
REMARK  124  A    between atoms: _344  and  _346
REMARK  125  A    between atoms: _346  and  _347
REMARK  126  A    between atoms: _346  and  _349
REMARK  127  A    between atoms: _351  and  _353
REMARK  128  A    between atoms: _353  and  _354
REMARK  129  A    between atoms: _353  and  _356
REMARK  130  A    between atoms: _359  and  _361
REMARK  131  A    between atoms: _361  and  _362
REMARK  132  A    between atoms: _361  and  _364
REMARK  133  A    between atoms: _364  and  _365
REMARK  134  A    between atoms: _375  and  _377
REMARK  135  A    between atoms: _377  and  _378
REMARK  136  A    between atoms: _377  and  _380
REMARK  137  A    between atoms: _380  and  _381
REMARK  138  A    between atoms: _386  and  _388
REMARK  139  A    between atoms: _388  and  _389
REMARK  140  A    between atoms: _388  and  _391
REMARK  141  A    between atoms: _391  and  _392
REMARK  142  A    between atoms: _392  and  _393
REMARK  143  A    between atoms: _393  and  _394
REMARK                            x       y       z     vdW  Elec       q    Type
REMARK                         _______ _______ _______ _____ _____    ______ ____
ROOT
ATOM      1  CG  TRP A   1      26.661   0.181  12.180  0.00  0.00    -0.002 A 
ATOM      2  CD2 TRP A   1      25.307  -0.269  12.145  0.00  0.00    +0.013 A 
ATOM      3  CE3 TRP A   1      24.690  -1.513  12.393  0.00  0.00    +0.001 A 
ATOM      4  CZ3 TRP A   1      23.319  -1.609  12.251  0.00  0.00    +0.000 A 
ATOM      5  CH2 TRP A   1      22.505  -0.462  11.922  0.00  0.00    +0.001 A 
ATOM      6  CZ2 TRP A   1      23.071   0.752  11.721  0.00  0.00    +0.017 A 
ATOM      7  CE2 TRP A   1      24.483   0.859  11.829  0.00  0.00    +0.056 A 
ATOM      8  NE1 TRP A   1      25.316   1.933  11.651  0.00  0.00    -0.352 N 
ATOM      9  HE1 TRP A   1      25.014   2.891  11.381  0.00  0.00    +0.166 HD
ATOM     10  CD1 TRP A   1      26.622   1.541  11.888  0.00  0.00    +0.068 A 
ENDROOT
BRANCH   1  11
ATOM     11  CB  TRP A   1      27.866  -0.623  12.482  0.00  0.00    +0.053 C 
BRANCH  11  12
ATOM     12  CA  TRP A   1      28.564  -1.284  11.287  0.00  0.00    +0.137 C 
BRANCH  12  13
ATOM     13  N   TRP A   1      29.100  -0.224  10.400  0.00  0.00    -0.239 NA
ATOM     14  H   TRP A   1      28.655   0.715  10.354  0.00  0.00    +0.142 HD
ENDBRANCH  12  13
BRANCH  12  15
ATOM     15  C   TRP A   1      27.580  -2.123  10.501  0.00  0.00    +0.224 C 
ATOM     16  O   TRP A   1      26.940  -1.582   9.572  0.00  0.00    -0.287 OA
ENDBRANCH  12  15
ENDBRANCH  11  12
ENDBRANCH   1  11
TORSDOF 4
REMARK  Name = ../refined-set-2016/3s76/3s76_pocket.pdb
REMARK  143 active torsions:
REMARK  status: ('A' for Active; 'I' for Inactive)
REMARK    1  A    between atoms: _1  and  _3
REMARK    2  A    between atoms: _3  and  _4
REMARK    3  A    between atoms: _3  and  _6
REMARK    4  A    between atoms: _6  and  _7
REMARK    5  A    between atoms: _17  and  _19
REMARK    6  A    between atoms: _19  and  _20
REMARK    7  A    between atoms: _19  and  _22
REMARK    8  A    between atoms: _22  and  _23
REMARK    9  A    between atoms: _28  and  _29
REMARK   10  A    between atoms: _31  and  _33
REMARK   11  A    between atoms: _33  and  _34
REMARK   12  A    between atoms: _33  and  _36
REMARK   13  A    between atoms: _36  and  _37
REMARK   14  A    between atoms: _40  and  _41
REMARK   15  A    between atoms: _46  and  _48
REMARK   16  A    between atoms: _48  and  _49
REMARK   17  A    between atoms: _48  and  _51
REMARK   18  A    between atoms: _51  and  _52
REMARK   19  A    between atoms: _57  and  _59
REMARK   20  A    between atoms: _59  and  _60
REMARK   21  A    between atoms: _63  and  _65
REMARK   22  A    between atoms: _65  and  _66
REMARK   23  A    between atoms: _65  and  _68
REMARK   24  A    between atoms: _68  and  _69
REMARK   25  A    between atoms: _74  and  _76
REMARK   26  A    between atoms: _76  and  _77
REMARK   27  A    between atoms: _76  and  _79
REMARK   28  A    between atoms: _79  and  _80
REMARK   29  A    between atoms: _83  and  _85
REMARK   30  A    between atoms: _85  and  _86
REMARK   31  A    between atoms: _85  and  _88
REMARK   32  A    between atoms: _88  and  _89
REMARK   33  A    between atoms: _89  and  _90
REMARK   34  A    between atoms: _95  and  _97
REMARK   35  A    between atoms: _97  and  _98
REMARK   36  A    between atoms: _97  and  _100
REMARK   37  A    between atoms: _100  and  _101
REMARK   38  A    between atoms: _107  and  _109
REMARK   39  A    between atoms: _120  and  _123
REMARK   40  A    between atoms: _123  and  _124
REMARK   41  A    between atoms: _132  and  _133
REMARK   42  A    between atoms: _141  and  _143
REMARK   43  A    between atoms: _143  and  _144
REMARK   44  A    between atoms: _143  and  _146
REMARK   45  A    between atoms: _146  and  _147
REMARK   46  A    between atoms: _147  and  _148
REMARK   47  A    between atoms: _151  and  _153
REMARK   48  A    between atoms: _153  and  _154
REMARK   49  A    between atoms: _153  and  _156
REMARK   50  A    between atoms: _156  and  _157
REMARK   51  A    between atoms: _162  and  _164
REMARK   52  A    between atoms: _164  and  _165
REMARK   53  A    between atoms: _164  and  _167
REMARK   54  A    between atoms: _167  and  _168
REMARK   55  A    between atoms: _168  and  _169
REMARK   56  A    between atoms: _172  and  _174
REMARK   57  A    between atoms: _174  and  _175
REMARK   58  A    between atoms: _174  and  _177
REMARK   59  A    between atoms: _177  and  _178
REMARK   60  A    between atoms: _181  and  _183
REMARK   61  A    between atoms: _183  and  _184
REMARK   62  A    between atoms: _183  and  _186
REMARK   63  A    between atoms: _186  and  _187
REMARK   64  A    between atoms: _188  and  ZN_403
REMARK   65  A    between atoms: _192  and  _194
REMARK   66  A    between atoms: _194  and  _195
REMARK   67  A    between atoms: _194  and  _197
REMARK   68  A    between atoms: _197  and  _198
REMARK   69  A    between atoms: _201  and  _203
REMARK   70  A    between atoms: _203  and  _204
REMARK   71  A    between atoms: _203  and  _206
REMARK   72  A    between atoms: _209  and  _211
REMARK   73  A    between atoms: _211  and  _212
REMARK   74  A    between atoms: _211  and  _214
REMARK   75  A    between atoms: _214  and  _215
REMARK   76  A    between atoms: _220  and  _222
REMARK   77  A    between atoms: _222  and  _223
REMARK   78  A    between atoms: _222  and  _225
REMARK   79  A    between atoms: _225  and  _226
REMARK   80  A    between atoms: _232  and  _234
REMARK   81  A    between atoms: _234  and  _235
REMARK   82  A    between atoms: _234  and  _237
REMARK   83  A    between atoms: _240  and  _242
REMARK   84  A    between atoms: _242  and  _243
REMARK   85  A    between atoms: _242  and  _245
REMARK   86  A    between atoms: _245  and  _246
REMARK   87  A    between atoms: _249  and  _251
REMARK   88  A    between atoms: _251  and  _252
REMARK   89  A    between atoms: _255  and  _257
REMARK   90  A    between atoms: _257  and  _258
REMARK   91  A    between atoms: _257  and  _260
REMARK   92  A    between atoms: _263  and  _265
REMARK   93  A    between atoms: _265  and  _266
REMARK   94  A    between atoms: _265  and  _268
REMARK   95  A    between atoms: _268  and  _269
REMARK   96  A    between atoms: _272  and  _274
REMARK   97  A    between atoms: _274  and  _275
REMARK   98  A    between atoms: _277  and  _279
REMARK   99  A    between atoms: _279  and  _280
REMARK  100  A    between atoms: _279  and  _282
REMARK  101  A    between atoms: _282  and  _283
REMARK  102  A    between atoms: _285  and  _287
REMARK  103  A    between atoms: _287  and  _288
REMARK  104  A    between atoms: _287  and  _290
REMARK  105  A    between atoms: _290  and  _291
REMARK  106  A    between atoms: _294  and  _296
REMARK  107  A    between atoms: _296  and  _297
REMARK  108  A    between atoms: _296  and  _299
REMARK  109  A    between atoms: _299  and  _300
REMARK  110  A    between atoms: _303  and  _305
REMARK  111  A    between atoms: _305  and  _306
REMARK  112  A    between atoms: _305  and  _308
REMARK  113  A    between atoms: _308  and  _309
REMARK  114  A    between atoms: _313  and  _314
REMARK  115  A    between atoms: _320  and  _321
REMARK  116  A    between atoms: _326  and  _328
REMARK  117  A    between atoms: _328  and  _329
REMARK  118  A    between atoms: _328  and  _331
REMARK  119  A    between atoms: _331  and  _332
REMARK  120  A    between atoms: _335  and  _337
REMARK  121  A    between atoms: _337  and  _338
REMARK  122  A    between atoms: _337  and  _340
REMARK  123  A    between atoms: _340  and  _341
REMARK  124  A    between atoms: _344  and  _346
REMARK  125  A    between atoms: _346  and  _347
REMARK  126  A    between atoms: _346  and  _349
REMARK  127  A    between atoms: _351  and  _353
REMARK  128  A    between atoms: _353  and  _354
REMARK  129  A    between atoms: _353  and  _356
REMARK  130  A    between atoms: _359  and  _361
REMARK  131  A    between atoms: _361  and  _362
REMARK  132  A    between atoms: _361  and  _364
REMARK  133  A    between atoms: _364  and  _365
REMARK  134  A    between atoms: _375  and  _377
REMARK  135  A    between atoms: _377  and  _378
REMARK  136  A    between atoms: _377  and  _380
REMARK  137  A    between atoms: _380  and  _381
REMARK  138  A    between atoms: _386  and  _388
REMARK  139  A    between atoms: _388  and  _389
REMARK  140  A    between atoms: _388  and  _391
REMARK  141  A    between atoms: _391  and  _392
REMARK  142  A    between atoms: _392  and  _393
REMARK  143  A    between atoms: _393  and  _394
REMARK                            x       y       z     vdW  Elec       q    Type
REMARK                         _______ _______ _______ _____ _____    ______ ____
ROOT
ATOM      1  CG  TYR A   1      22.798  -6.804  11.919  0.00  0.00    -0.020 A 
ATOM      2  CD2 TYR A   1      22.424  -6.796  13.288  0.00  0.00    -0.001 A 
ATOM      3  CE2 TYR A   1      21.587  -5.794  13.785  0.00  0.00    +0.036 A 
ATOM      4  CZ  TYR A   1      21.090  -4.829  12.944  0.00  0.00    +0.134 A 
ATOM      5  CE1 TYR A   1      21.455  -4.784  11.595  0.00  0.00    +0.036 A 
ATOM      6  CD1 TYR A   1      22.307  -5.802  11.100  0.00  0.00    -0.001 A 
ENDROOT
BRANCH   4   7
ATOM      7  OH  TYR A   1      20.248  -3.886  13.464  0.00  0.00    -0.506 OA
ATOM      8  HH  TYR A   1      19.972  -3.261  12.748  0.00  0.00    +0.292 HD
ENDBRANCH   4   7
BRANCH   1   9
ATOM      9  CB  TYR A   1      23.711  -7.910  11.365  0.00  0.00    +0.051 C 
BRANCH   9  10
ATOM     10  CA  TYR A   1      25.179  -7.594  11.598  0.00  0.00    +0.137 C 
BRANCH  10  11
ATOM     11  N   TYR A   1      25.623  -6.470  10.794  0.00  0.00    -0.239 NA
ATOM     12  H   TYR A   1      25.711  -6.577   9.763  0.00  0.00    +0.142 HD
ENDBRANCH  10  11
BRANCH  10  13
ATOM     13  C   TYR A   1      26.025  -8.819  11.334  0.00  0.00    +0.224 C 
ATOM     14  O   TYR A   1      25.692  -9.876  11.800  0.00  0.00    -0.287 OA
ENDBRANCH  10  13
ENDBRANCH   9  10
ENDBRANCH   1   9
TORSDOF 5
REMARK  Name = ../refined-set-2016/3s76/3s76_pocket.pdb
REMARK  143 active torsions:
REMARK  status: ('A' for Active; 'I' for Inactive)
REMARK    1  A    between atoms: _1  and  _3
REMARK    2  A    between atoms: _3  and  _4
REMARK    3  A    between atoms: _3  and  _6
REMARK    4  A    between atoms: _6  and  _7
REMARK    5  A    between atoms: _17  and  _19
REMARK    6  A    between atoms: _19  and  _20
REMARK    7  A    between atoms: _19  and  _22
REMARK    8  A    between atoms: _22  and  _23
REMARK    9  A    between atoms: _28  and  _29
REMARK   10  A    between atoms: _31  and  _33
REMARK   11  A    between atoms: _33  and  _34
REMARK   12  A    between atoms: _33  and  _36
REMARK   13  A    between atoms: _36  and  _37
REMARK   14  A    between atoms: _40  and  _41
REMARK   15  A    between atoms: _46  and  _48
REMARK   16  A    between atoms: _48  and  _49
REMARK   17  A    between atoms: _48  and  _51
REMARK   18  A    between atoms: _51  and  _52
REMARK   19  A    between atoms: _57  and  _59
REMARK   20  A    between atoms: _59  and  _60
REMARK   21  A    between atoms: _63  and  _65
REMARK   22  A    between atoms: _65  and  _66
REMARK   23  A    between atoms: _65  and  _68
REMARK   24  A    between atoms: _68  and  _69
REMARK   25  A    between atoms: _74  and  _76
REMARK   26  A    between atoms: _76  and  _77
REMARK   27  A    between atoms: _76  and  _79
REMARK   28  A    between atoms: _79  and  _80
REMARK   29  A    between atoms: _83  and  _85
REMARK   30  A    between atoms: _85  and  _86
REMARK   31  A    between atoms: _85  and  _88
REMARK   32  A    between atoms: _88  and  _89
REMARK   33  A    between atoms: _89  and  _90
REMARK   34  A    between atoms: _95  and  _97
REMARK   35  A    between atoms: _97  and  _98
REMARK   36  A    between atoms: _97  and  _100
REMARK   37  A    between atoms: _100  and  _101
REMARK   38  A    between atoms: _107  and  _109
REMARK   39  A    between atoms: _120  and  _123
REMARK   40  A    between atoms: _123  and  _124
REMARK   41  A    between atoms: _132  and  _133
REMARK   42  A    between atoms: _141  and  _143
REMARK   43  A    between atoms: _143  and  _144
REMARK   44  A    between atoms: _143  and  _146
REMARK   45  A    between atoms: _146  and  _147
REMARK   46  A    between atoms: _147  and  _148
REMARK   47  A    between atoms: _151  and  _153
REMARK   48  A    between atoms: _153  and  _154
REMARK   49  A    between atoms: _153  and  _156
REMARK   50  A    between atoms: _156  and  _157
REMARK   51  A    between atoms: _162  and  _164
REMARK   52  A    between atoms: _164  and  _165
REMARK   53  A    between atoms: _164  and  _167
REMARK   54  A    between atoms: _167  and  _168
REMARK   55  A    between atoms: _168  and  _169
REMARK   56  A    between atoms: _172  and  _174
REMARK   57  A    between atoms: _174  and  _175
REMARK   58  A    between atoms: _174  and  _177
REMARK   59  A    between atoms: _177  and  _178
REMARK   60  A    between atoms: _181  and  _183
REMARK   61  A    between atoms: _183  and  _184
REMARK   62  A    between atoms: _183  and  _186
REMARK   63  A    between atoms: _186  and  _187
REMARK   64  A    between atoms: _188  and  ZN_403
REMARK   65  A    between atoms: _192  and  _194
REMARK   66  A    between atoms: _194  and  _195
REMARK   67  A    between atoms: _194  and  _197
REMARK   68  A    between atoms: _197  and  _198
REMARK   69  A    between atoms: _201  and  _203
REMARK   70  A    between atoms: _203  and  _204
REMARK   71  A    between atoms: _203  and  _206
REMARK   72  A    between atoms: _209  and  _211
REMARK   73  A    between atoms: _211  and  _212
REMARK   74  A    between atoms: _211  and  _214
REMARK   75  A    between atoms: _214  and  _215
REMARK   76  A    between atoms: _220  and  _222
REMARK   77  A    between atoms: _222  and  _223
REMARK   78  A    between atoms: _222  and  _225
REMARK   79  A    between atoms: _225  and  _226
REMARK   80  A    between atoms: _232  and  _234
REMARK   81  A    between atoms: _234  and  _235
REMARK   82  A    between atoms: _234  and  _237
REMARK   83  A    between atoms: _240  and  _242
REMARK   84  A    between atoms: _242  and  _243
REMARK   85  A    between atoms: _242  and  _245
REMARK   86  A    between atoms: _245  and  _246
REMARK   87  A    between atoms: _249  and  _251
REMARK   88  A    between atoms: _251  and  _252
REMARK   89  A    between atoms: _255  and  _257
REMARK   90  A    between atoms: _257  and  _258
REMARK   91  A    between atoms: _257  and  _260
REMARK   92  A    between atoms: _263  and  _265
REMARK   93  A    between atoms: _265  and  _266
REMARK   94  A    between atoms: _265  and  _268
REMARK   95  A    between atoms: _268  and  _269
REMARK   96  A    between atoms: _272  and  _274
REMARK   97  A    between atoms: _274  and  _275
REMARK   98  A    between atoms: _277  and  _279
REMARK   99  A    between atoms: _279  and  _280
REMARK  100  A    between atoms: _279  and  _282
REMARK  101  A    between atoms: _282  and  _283
REMARK  102  A    between atoms: _285  and  _287
REMARK  103  A    between atoms: _287  and  _288
REMARK  104  A    between atoms: _287  and  _290
REMARK  105  A    between atoms: _290  and  _291
REMARK  106  A    between atoms: _294  and  _296
REMARK  107  A    between atoms: _296  and  _297
REMARK  108  A    between atoms: _296  and  _299
REMARK  109  A    between atoms: _299  and  _300
REMARK  110  A    between atoms: _303  and  _305
REMARK  111  A    between atoms: _305  and  _306
REMARK  112  A    between atoms: _305  and  _308
REMARK  113  A    between atoms: _308  and  _309
REMARK  114  A    between atoms: _313  and  _314
REMARK  115  A    between atoms: _320  and  _321
REMARK  116  A    between atoms: _326  and  _328
REMARK  117  A    between atoms: _328  and  _329
REMARK  118  A    between atoms: _328  and  _331
REMARK  119  A    between atoms: _331  and  _332
REMARK  120  A    between atoms: _335  and  _337
REMARK  121  A    between atoms: _337  and  _338
REMARK  122  A    between atoms: _337  and  _340
REMARK  123  A    between atoms: _340  and  _341
REMARK  124  A    between atoms: _344  and  _346
REMARK  125  A    between atoms: _346  and  _347
REMARK  126  A    between atoms: _346  and  _349
REMARK  127  A    between atoms: _351  and  _353
REMARK  128  A    between atoms: _353  and  _354
REMARK  129  A    between atoms: _353  and  _356
REMARK  130  A    between atoms: _359  and  _361
REMARK  131  A    between atoms: _361  and  _362
REMARK  132  A    between atoms: _361  and  _364
REMARK  133  A    between atoms: _364  and  _365
REMARK  134  A    between atoms: _375  and  _377
REMARK  135  A    between atoms: _377  and  _378
REMARK  136  A    between atoms: _377  and  _380
REMARK  137  A    between atoms: _380  and  _381
REMARK  138  A    between atoms: _386  and  _388
REMARK  139  A    between atoms: _388  and  _389
REMARK  140  A    between atoms: _388  and  _391
REMARK  141  A    between atoms: _391  and  _392
REMARK  142  A    between atoms: _392  and  _393
REMARK  143  A    between atoms: _393  and  _394
REMARK                            x       y       z     vdW  Elec       q    Type
REMARK                         _______ _______ _______ _____ _____    ______ ____
ROOT
ATOM      1  C   SER A   1      18.719  -2.937  23.333  0.00  0.00    +0.244 C 
ATOM      2  N   PRO A   2      18.061  -4.070  23.076  0.00  0.00    -0.273 N 
ATOM      3  CA  PRO A   2      16.893  -4.576  23.772  0.00  0.00    +0.140 C 
ATOM      4  CB  PRO A   2      16.346  -5.581  22.718  0.00  0.00    +0.030 C 
ATOM      5  CG  PRO A   2      17.626  -6.200  22.122  0.00  0.00    +0.024 C 
ATOM      6  CD  PRO A   2      18.544  -4.987  22.020  0.00  0.00    +0.094 C 
ATOM      7  O   SER A   1      19.701  -2.566  22.686  0.00  0.00    -0.273 OA
ENDROOT
BRANCH   3   8
ATOM      8  C   PRO A   2      17.277  -5.284  25.052  0.00  0.00    +0.227 C 
ATOM      9  O   PRO A   2      18.473  -5.308  25.443  0.00  0.00    -0.286 OA
ENDBRANCH   3   8
BRANCH   1  10
ATOM     10  CA  SER A   1      18.170  -2.062  24.462  0.00  0.00    +0.175 C 
BRANCH  10  11
ATOM     11  N   SER A   1      19.215  -1.143  24.931  0.00  0.00    -0.236 NA
ATOM     12  H   SER A   1      19.686  -0.526  24.239  0.00  0.00    +0.142 HD
ENDBRANCH  10  11
BRANCH  10  13
ATOM     13  CB  SER A   1      17.001  -1.239  23.853  0.00  0.00    +0.163 C 
BRANCH  13  14
ATOM     14  OG  SER A   1      16.378  -0.465  24.943  0.00  0.00    -0.380 OA
ATOM     15  H   SER A   1      16.037  -1.086  25.634  0.00  0.00    +0.211 HD
ENDBRANCH  13  14
ENDBRANCH  10  13
ENDBRANCH   1  10
TORSDOF 5
REMARK  Name = ../refined-set-2016/3s76/3s76_pocket.pdb
REMARK  143 active torsions:
REMARK  status: ('A' for Active; 'I' for Inactive)
REMARK    1  A    between atoms: _1  and  _3
REMARK    2  A    between atoms: _3  and  _4
REMARK    3  A    between atoms: _3  and  _6
REMARK    4  A    between atoms: _6  and  _7
REMARK    5  A    between atoms: _17  and  _19
REMARK    6  A    between atoms: _19  and  _20
REMARK    7  A    between atoms: _19  and  _22
REMARK    8  A    between atoms: _22  and  _23
REMARK    9  A    between atoms: _28  and  _29
REMARK   10  A    between atoms: _31  and  _33
REMARK   11  A    between atoms: _33  and  _34
REMARK   12  A    between atoms: _33  and  _36
REMARK   13  A    between atoms: _36  and  _37
REMARK   14  A    between atoms: _40  and  _41
REMARK   15  A    between atoms: _46  and  _48
REMARK   16  A    between atoms: _48  and  _49
REMARK   17  A    between atoms: _48  and  _51
REMARK   18  A    between atoms: _51  and  _52
REMARK   19  A    between atoms: _57  and  _59
REMARK   20  A    between atoms: _59  and  _60
REMARK   21  A    between atoms: _63  and  _65
REMARK   22  A    between atoms: _65  and  _66
REMARK   23  A    between atoms: _65  and  _68
REMARK   24  A    between atoms: _68  and  _69
REMARK   25  A    between atoms: _74  and  _76
REMARK   26  A    between atoms: _76  and  _77
REMARK   27  A    between atoms: _76  and  _79
REMARK   28  A    between atoms: _79  and  _80
REMARK   29  A    between atoms: _83  and  _85
REMARK   30  A    between atoms: _85  and  _86
REMARK   31  A    between atoms: _85  and  _88
REMARK   32  A    between atoms: _88  and  _89
REMARK   33  A    between atoms: _89  and  _90
REMARK   34  A    between atoms: _95  and  _97
REMARK   35  A    between atoms: _97  and  _98
REMARK   36  A    between atoms: _97  and  _100
REMARK   37  A    between atoms: _100  and  _101
REMARK   38  A    between atoms: _107  and  _109
REMARK   39  A    between atoms: _120  and  _123
REMARK   40  A    between atoms: _123  and  _124
REMARK   41  A    between atoms: _132  and  _133
REMARK   42  A    between atoms: _141  and  _143
REMARK   43  A    between atoms: _143  and  _144
REMARK   44  A    between atoms: _143  and  _146
REMARK   45  A    between atoms: _146  and  _147
REMARK   46  A    between atoms: _147  and  _148
REMARK   47  A    between atoms: _151  and  _153
REMARK   48  A    between atoms: _153  and  _154
REMARK   49  A    between atoms: _153  and  _156
REMARK   50  A    between atoms: _156  and  _157
REMARK   51  A    between atoms: _162  and  _164
REMARK   52  A    between atoms: _164  and  _165
REMARK   53  A    between atoms: _164  and  _167
REMARK   54  A    between atoms: _167  and  _168
REMARK   55  A    between atoms: _168  and  _169
REMARK   56  A    between atoms: _172  and  _174
REMARK   57  A    between atoms: _174  and  _175
REMARK   58  A    between atoms: _174  and  _177
REMARK   59  A    between atoms: _177  and  _178
REMARK   60  A    between atoms: _181  and  _183
REMARK   61  A    between atoms: _183  and  _184
REMARK   62  A    between atoms: _183  and  _186
REMARK   63  A    between atoms: _186  and  _187
REMARK   64  A    between atoms: _188  and  ZN_403
REMARK   65  A    between atoms: _192  and  _194
REMARK   66  A    between atoms: _194  and  _195
REMARK   67  A    between atoms: _194  and  _197
REMARK   68  A    between atoms: _197  and  _198
REMARK   69  A    between atoms: _201  and  _203
REMARK   70  A    between atoms: _203  and  _204
REMARK   71  A    between atoms: _203  and  _206
REMARK   72  A    between atoms: _209  and  _211
REMARK   73  A    between atoms: _211  and  _212
REMARK   74  A    between atoms: _211  and  _214
REMARK   75  A    between atoms: _214  and  _215
REMARK   76  A    between atoms: _220  and  _222
REMARK   77  A    between atoms: _222  and  _223
REMARK   78  A    between atoms: _222  and  _225
REMARK   79  A    between atoms: _225  and  _226
REMARK   80  A    between atoms: _232  and  _234
REMARK   81  A    between atoms: _234  and  _235
REMARK   82  A    between atoms: _234  and  _237
REMARK   83  A    between atoms: _240  and  _242
REMARK   84  A    between atoms: _242  and  _243
REMARK   85  A    between atoms: _242  and  _245
REMARK   86  A    between atoms: _245  and  _246
REMARK   87  A    between atoms: _249  and  _251
REMARK   88  A    between atoms: _251  and  _252
REMARK   89  A    between atoms: _255  and  _257
REMARK   90  A    between atoms: _257  and  _258
REMARK   91  A    between atoms: _257  and  _260
REMARK   92  A    between atoms: _263  and  _265
REMARK   93  A    between atoms: _265  and  _266
REMARK   94  A    between atoms: _265  and  _268
REMARK   95  A    between atoms: _268  and  _269
REMARK   96  A    between atoms: _272  and  _274
REMARK   97  A    between atoms: _274  and  _275
REMARK   98  A    between atoms: _277  and  _279
REMARK   99  A    between atoms: _279  and  _280
REMARK  100  A    between atoms: _279  and  _282
REMARK  101  A    between atoms: _282  and  _283
REMARK  102  A    between atoms: _285  and  _287
REMARK  103  A    between atoms: _287  and  _288
REMARK  104  A    between atoms: _287  and  _290
REMARK  105  A    between atoms: _290  and  _291
REMARK  106  A    between atoms: _294  and  _296
REMARK  107  A    between atoms: _296  and  _297
REMARK  108  A    between atoms: _296  and  _299
REMARK  109  A    between atoms: _299  and  _300
REMARK  110  A    between atoms: _303  and  _305
REMARK  111  A    between atoms: _305  and  _306
REMARK  112  A    between atoms: _305  and  _308
REMARK  113  A    between atoms: _308  and  _309
REMARK  114  A    between atoms: _313  and  _314
REMARK  115  A    between atoms: _320  and  _321
REMARK  116  A    between atoms: _326  and  _328
REMARK  117  A    between atoms: _328  and  _329
REMARK  118  A    between atoms: _328  and  _331
REMARK  119  A    between atoms: _331  and  _332
REMARK  120  A    between atoms: _335  and  _337
REMARK  121  A    between atoms: _337  and  _338
REMARK  122  A    between atoms: _337  and  _340
REMARK  123  A    between atoms: _340  and  _341
REMARK  124  A    between atoms: _344  and  _346
REMARK  125  A    between atoms: _346  and  _347
REMARK  126  A    between atoms: _346  and  _349
REMARK  127  A    between atoms: _351  and  _353
REMARK  128  A    between atoms: _353  and  _354
REMARK  129  A    between atoms: _353  and  _356
REMARK  130  A    between atoms: _359  and  _361
REMARK  131  A    between atoms: _361  and  _362
REMARK  132  A    between atoms: _361  and  _364
REMARK  133  A    between atoms: _364  and  _365
REMARK  134  A    between atoms: _375  and  _377
REMARK  135  A    between atoms: _377  and  _378
REMARK  136  A    between atoms: _377  and  _380
REMARK  137  A    between atoms: _380  and  _381
REMARK  138  A    between atoms: _386  and  _388
REMARK  139  A    between atoms: _388  and  _389
REMARK  140  A    between atoms: _388  and  _391
REMARK  141  A    between atoms: _391  and  _392
REMARK  142  A    between atoms: _392  and  _393
REMARK  143  A    between atoms: _393  and  _394
REMARK                            x       y       z     vdW  Elec       q    Type
REMARK                         _______ _______ _______ _____ _____    ______ ____
ROOT
ATOM      1  CB  ASN A   1      18.414   1.958   5.311  0.00  0.00    +0.110 C 
ENDROOT
BRANCH   1   2
ATOM      2  CG  ASN A   1      18.265   1.149   6.565  0.00  0.00    +0.221 C 
ATOM      3  ND2 ASN A   1      17.891   1.843   7.655  0.00  0.00    -0.329 N 
ATOM      4 HD21 ASN A   1      17.719   1.348   8.553  0.00  0.00    +0.145 HD
ATOM      5 HD22 ASN A   1      17.774   2.875   7.599  0.00  0.00    +0.145 HD
ATOM      6  OD1 ASN A   1      18.418  -0.057   6.570  0.00  0.00    -0.275 OA
ENDBRANCH   1   2
BRANCH   1   7
ATOM      7  CA  ASN A   1      18.811   1.110   4.087  0.00  0.00    +0.142 C 
BRANCH   7   8
ATOM      8  N   ASN A   1      17.693   0.267   3.651  0.00  0.00    -0.239 NA
ATOM      9  H   ASN A   1      17.134  -0.263   4.350  0.00  0.00    +0.142 HD
ENDBRANCH   7   8
BRANCH   7  10
ATOM     10  C   ASN A   1      20.076   0.307   4.350  0.00  0.00    +0.225 C 
ATOM     11  O   ASN A   1      21.060   0.863   4.917  0.00  0.00    -0.287 OA
ENDBRANCH   7  10
ENDBRANCH   1   7
TORSDOF 4
REMARK  Name = ../refined-set-2016/3s76/3s76_pocket.pdb
REMARK  143 active torsions:
REMARK  status: ('A' for Active; 'I' for Inactive)
REMARK    1  A    between atoms: _1  and  _3
REMARK    2  A    between atoms: _3  and  _4
REMARK    3  A    between atoms: _3  and  _6
REMARK    4  A    between atoms: _6  and  _7
REMARK    5  A    between atoms: _17  and  _19
REMARK    6  A    between atoms: _19  and  _20
REMARK    7  A    between atoms: _19  and  _22
REMARK    8  A    between atoms: _22  and  _23
REMARK    9  A    between atoms: _28  and  _29
REMARK   10  A    between atoms: _31  and  _33
REMARK   11  A    between atoms: _33  and  _34
REMARK   12  A    between atoms: _33  and  _36
REMARK   13  A    between atoms: _36  and  _37
REMARK   14  A    between atoms: _40  and  _41
REMARK   15  A    between atoms: _46  and  _48
REMARK   16  A    between atoms: _48  and  _49
REMARK   17  A    between atoms: _48  and  _51
REMARK   18  A    between atoms: _51  and  _52
REMARK   19  A    between atoms: _57  and  _59
REMARK   20  A    between atoms: _59  and  _60
REMARK   21  A    between atoms: _63  and  _65
REMARK   22  A    between atoms: _65  and  _66
REMARK   23  A    between atoms: _65  and  _68
REMARK   24  A    between atoms: _68  and  _69
REMARK   25  A    between atoms: _74  and  _76
REMARK   26  A    between atoms: _76  and  _77
REMARK   27  A    between atoms: _76  and  _79
REMARK   28  A    between atoms: _79  and  _80
REMARK   29  A    between atoms: _83  and  _85
REMARK   30  A    between atoms: _85  and  _86
REMARK   31  A    between atoms: _85  and  _88
REMARK   32  A    between atoms: _88  and  _89
REMARK   33  A    between atoms: _89  and  _90
REMARK   34  A    between atoms: _95  and  _97
REMARK   35  A    between atoms: _97  and  _98
REMARK   36  A    between atoms: _97  and  _100
REMARK   37  A    between atoms: _100  and  _101
REMARK   38  A    between atoms: _107  and  _109
REMARK   39  A    between atoms: _120  and  _123
REMARK   40  A    between atoms: _123  and  _124
REMARK   41  A    between atoms: _132  and  _133
REMARK   42  A    between atoms: _141  and  _143
REMARK   43  A    between atoms: _143  and  _144
REMARK   44  A    between atoms: _143  and  _146
REMARK   45  A    between atoms: _146  and  _147
REMARK   46  A    between atoms: _147  and  _148
REMARK   47  A    between atoms: _151  and  _153
REMARK   48  A    between atoms: _153  and  _154
REMARK   49  A    between atoms: _153  and  _156
REMARK   50  A    between atoms: _156  and  _157
REMARK   51  A    between atoms: _162  and  _164
REMARK   52  A    between atoms: _164  and  _165
REMARK   53  A    between atoms: _164  and  _167
REMARK   54  A    between atoms: _167  and  _168
REMARK   55  A    between atoms: _168  and  _169
REMARK   56  A    between atoms: _172  and  _174
REMARK   57  A    between atoms: _174  and  _175
REMARK   58  A    between atoms: _174  and  _177
REMARK   59  A    between atoms: _177  and  _178
REMARK   60  A    between atoms: _181  and  _183
REMARK   61  A    between atoms: _183  and  _184
REMARK   62  A    between atoms: _183  and  _186
REMARK   63  A    between atoms: _186  and  _187
REMARK   64  A    between atoms: _188  and  ZN_403
REMARK   65  A    between atoms: _192  and  _194
REMARK   66  A    between atoms: _194  and  _195
REMARK   67  A    between atoms: _194  and  _197
REMARK   68  A    between atoms: _197  and  _198
REMARK   69  A    between atoms: _201  and  _203
REMARK   70  A    between atoms: _203  and  _204
REMARK   71  A    between atoms: _203  and  _206
REMARK   72  A    between atoms: _209  and  _211
REMARK   73  A    between atoms: _211  and  _212
REMARK   74  A    between atoms: _211  and  _214
REMARK   75  A    between atoms: _214  and  _215
REMARK   76  A    between atoms: _220  and  _222
REMARK   77  A    between atoms: _222  and  _223
REMARK   78  A    between atoms: _222  and  _225
REMARK   79  A    between atoms: _225  and  _226
REMARK   80  A    between atoms: _232  and  _234
REMARK   81  A    between atoms: _234  and  _235
REMARK   82  A    between atoms: _234  and  _237
REMARK   83  A    between atoms: _240  and  _242
REMARK   84  A    between atoms: _242  and  _243
REMARK   85  A    between atoms: _242  and  _245
REMARK   86  A    between atoms: _245  and  _246
REMARK   87  A    between atoms: _249  and  _251
REMARK   88  A    between atoms: _251  and  _252
REMARK   89  A    between atoms: _255  and  _257
REMARK   90  A    between atoms: _257  and  _258
REMARK   91  A    between atoms: _257  and  _260
REMARK   92  A    between atoms: _263  and  _265
REMARK   93  A    between atoms: _265  and  _266
REMARK   94  A    between atoms: _265  and  _268
REMARK   95  A    between atoms: _268  and  _269
REMARK   96  A    between atoms: _272  and  _274
REMARK   97  A    between atoms: _274  and  _275
REMARK   98  A    between atoms: _277  and  _279
REMARK   99  A    between atoms: _279  and  _280
REMARK  100  A    between atoms: _279  and  _282
REMARK  101  A    between atoms: _282  and  _283
REMARK  102  A    between atoms: _285  and  _287
REMARK  103  A    between atoms: _287  and  _288
REMARK  104  A    between atoms: _287  and  _290
REMARK  105  A    between atoms: _290  and  _291
REMARK  106  A    between atoms: _294  and  _296
REMARK  107  A    between atoms: _296  and  _297
REMARK  108  A    between atoms: _296  and  _299
REMARK  109  A    between atoms: _299  and  _300
REMARK  110  A    between atoms: _303  and  _305
REMARK  111  A    between atoms: _305  and  _306
REMARK  112  A    between atoms: _305  and  _308
REMARK  113  A    between atoms: _308  and  _309
REMARK  114  A    between atoms: _313  and  _314
REMARK  115  A    between atoms: _320  and  _321
REMARK  116  A    between atoms: _326  and  _328
REMARK  117  A    between atoms: _328  and  _329
REMARK  118  A    between atoms: _328  and  _331
REMARK  119  A    between atoms: _331  and  _332
REMARK  120  A    between atoms: _335  and  _337
REMARK  121  A    between atoms: _337  and  _338
REMARK  122  A    between atoms: _337  and  _340
REMARK  123  A    between atoms: _340  and  _341
REMARK  124  A    between atoms: _344  and  _346
REMARK  125  A    between atoms: _346  and  _347
REMARK  126  A    between atoms: _346  and  _349
REMARK  127  A    between atoms: _351  and  _353
REMARK  128  A    between atoms: _353  and  _354
REMARK  129  A    between atoms: _353  and  _356
REMARK  130  A    between atoms: _359  and  _361
REMARK  131  A    between atoms: _361  and  _362
REMARK  132  A    between atoms: _361  and  _364
REMARK  133  A    between atoms: _364  and  _365
REMARK  134  A    between atoms: _375  and  _377
REMARK  135  A    between atoms: _377  and  _378
REMARK  136  A    between atoms: _377  and  _380
REMARK  137  A    between atoms: _380  and  _381
REMARK  138  A    between atoms: _386  and  _388
REMARK  139  A    between atoms: _388  and  _389
REMARK  140  A    between atoms: _388  and  _391
REMARK  141  A    between atoms: _391  and  _392
REMARK  142  A    between atoms: _392  and  _393
REMARK  143  A    between atoms: _393  and  _394
REMARK                            x       y       z     vdW  Elec       q    Type
REMARK                         _______ _______ _______ _____ _____    ______ ____
ROOT
ATOM      1  CA  ALA A   1      16.480  -3.304   7.396  0.00  0.00    +0.133 C 
ATOM      2  CB  ALA A   1      15.811  -3.041   8.782  0.00  0.00    +0.027 C 
ENDROOT
BRANCH   1   3
ATOM      3  N   ALA A   1      17.829  -2.810   7.356  0.00  0.00    -0.239 NA
ATOM      4  H   ALA A   1      18.005  -1.872   6.943  0.00  0.00    +0.142 HD
ENDBRANCH   1   3
BRANCH   1   5
ATOM      5  C   ALA A   1      15.757  -2.546   6.237  0.00  0.00    +0.224 C 
ATOM      6  O   ALA A   1      16.421  -1.955   5.367  0.00  0.00    -0.287 OA
ENDBRANCH   1   5
TORSDOF 2
REMARK  Name = ../refined-set-2016/3s76/3s76_pocket.pdb
REMARK  143 active torsions:
REMARK  status: ('A' for Active; 'I' for Inactive)
REMARK    1  A    between atoms: _1  and  _3
REMARK    2  A    between atoms: _3  and  _4
REMARK    3  A    between atoms: _3  and  _6
REMARK    4  A    between atoms: _6  and  _7
REMARK    5  A    between atoms: _17  and  _19
REMARK    6  A    between atoms: _19  and  _20
REMARK    7  A    between atoms: _19  and  _22
REMARK    8  A    between atoms: _22  and  _23
REMARK    9  A    between atoms: _28  and  _29
REMARK   10  A    between atoms: _31  and  _33
REMARK   11  A    between atoms: _33  and  _34
REMARK   12  A    between atoms: _33  and  _36
REMARK   13  A    between atoms: _36  and  _37
REMARK   14  A    between atoms: _40  and  _41
REMARK   15  A    between atoms: _46  and  _48
REMARK   16  A    between atoms: _48  and  _49
REMARK   17  A    between atoms: _48  and  _51
REMARK   18  A    between atoms: _51  and  _52
REMARK   19  A    between atoms: _57  and  _59
REMARK   20  A    between atoms: _59  and  _60
REMARK   21  A    between atoms: _63  and  _65
REMARK   22  A    between atoms: _65  and  _66
REMARK   23  A    between atoms: _65  and  _68
REMARK   24  A    between atoms: _68  and  _69
REMARK   25  A    between atoms: _74  and  _76
REMARK   26  A    between atoms: _76  and  _77
REMARK   27  A    between atoms: _76  and  _79
REMARK   28  A    between atoms: _79  and  _80
REMARK   29  A    between atoms: _83  and  _85
REMARK   30  A    between atoms: _85  and  _86
REMARK   31  A    between atoms: _85  and  _88
REMARK   32  A    between atoms: _88  and  _89
REMARK   33  A    between atoms: _89  and  _90
REMARK   34  A    between atoms: _95  and  _97
REMARK   35  A    between atoms: _97  and  _98
REMARK   36  A    between atoms: _97  and  _100
REMARK   37  A    between atoms: _100  and  _101
REMARK   38  A    between atoms: _107  and  _109
REMARK   39  A    between atoms: _120  and  _123
REMARK   40  A    between atoms: _123  and  _124
REMARK   41  A    between atoms: _132  and  _133
REMARK   42  A    between atoms: _141  and  _143
REMARK   43  A    between atoms: _143  and  _144
REMARK   44  A    between atoms: _143  and  _146
REMARK   45  A    between atoms: _146  and  _147
REMARK   46  A    between atoms: _147  and  _148
REMARK   47  A    between atoms: _151  and  _153
REMARK   48  A    between atoms: _153  and  _154
REMARK   49  A    between atoms: _153  and  _156
REMARK   50  A    between atoms: _156  and  _157
REMARK   51  A    between atoms: _162  and  _164
REMARK   52  A    between atoms: _164  and  _165
REMARK   53  A    between atoms: _164  and  _167
REMARK   54  A    between atoms: _167  and  _168
REMARK   55  A    between atoms: _168  and  _169
REMARK   56  A    between atoms: _172  and  _174
REMARK   57  A    between atoms: _174  and  _175
REMARK   58  A    between atoms: _174  and  _177
REMARK   59  A    between atoms: _177  and  _178
REMARK   60  A    between atoms: _181  and  _183
REMARK   61  A    between atoms: _183  and  _184
REMARK   62  A    between atoms: _183  and  _186
REMARK   63  A    between atoms: _186  and  _187
REMARK   64  A    between atoms: _188  and  ZN_403
REMARK   65  A    between atoms: _192  and  _194
REMARK   66  A    between atoms: _194  and  _195
REMARK   67  A    between atoms: _194  and  _197
REMARK   68  A    between atoms: _197  and  _198
REMARK   69  A    between atoms: _201  and  _203
REMARK   70  A    between atoms: _203  and  _204
REMARK   71  A    between atoms: _203  and  _206
REMARK   72  A    between atoms: _209  and  _211
REMARK   73  A    between atoms: _211  and  _212
REMARK   74  A    between atoms: _211  and  _214
REMARK   75  A    between atoms: _214  and  _215
REMARK   76  A    between atoms: _220  and  _222
REMARK   77  A    between atoms: _222  and  _223
REMARK   78  A    between atoms: _222  and  _225
REMARK   79  A    between atoms: _225  and  _226
REMARK   80  A    between atoms: _232  and  _234
REMARK   81  A    between atoms: _234  and  _235
REMARK   82  A    between atoms: _234  and  _237
REMARK   83  A    between atoms: _240  and  _242
REMARK   84  A    between atoms: _242  and  _243
REMARK   85  A    between atoms: _242  and  _245
REMARK   86  A    between atoms: _245  and  _246
REMARK   87  A    between atoms: _249  and  _251
REMARK   88  A    between atoms: _251  and  _252
REMARK   89  A    between atoms: _255  and  _257
REMARK   90  A    between atoms: _257  and  _258
REMARK   91  A    between atoms: _257  and  _260
REMARK   92  A    between atoms: _263  and  _265
REMARK   93  A    between atoms: _265  and  _266
REMARK   94  A    between atoms: _265  and  _268
REMARK   95  A    between atoms: _268  and  _269
REMARK   96  A    between atoms: _272  and  _274
REMARK   97  A    between atoms: _274  and  _275
REMARK   98  A    between atoms: _277  and  _279
REMARK   99  A    between atoms: _279  and  _280
REMARK  100  A    between atoms: _279  and  _282
REMARK  101  A    between atoms: _282  and  _283
REMARK  102  A    between atoms: _285  and  _287
REMARK  103  A    between atoms: _287  and  _288
REMARK  104  A    between atoms: _287  and  _290
REMARK  105  A    between atoms: _290  and  _291
REMARK  106  A    between atoms: _294  and  _296
REMARK  107  A    between atoms: _296  and  _297
REMARK  108  A    between atoms: _296  and  _299
REMARK  109  A    between atoms: _299  and  _300
REMARK  110  A    between atoms: _303  and  _305
REMARK  111  A    between atoms: _305  and  _306
REMARK  112  A    between atoms: _305  and  _308
REMARK  113  A    between atoms: _308  and  _309
REMARK  114  A    between atoms: _313  and  _314
REMARK  115  A    between atoms: _320  and  _321
REMARK  116  A    between atoms: _326  and  _328
REMARK  117  A    between atoms: _328  and  _329
REMARK  118  A    between atoms: _328  and  _331
REMARK  119  A    between atoms: _331  and  _332
REMARK  120  A    between atoms: _335  and  _337
REMARK  121  A    between atoms: _337  and  _338
REMARK  122  A    between atoms: _337  and  _340
REMARK  123  A    between atoms: _340  and  _341
REMARK  124  A    between atoms: _344  and  _346
REMARK  125  A    between atoms: _346  and  _347
REMARK  126  A    between atoms: _346  and  _349
REMARK  127  A    between atoms: _351  and  _353
REMARK  128  A    between atoms: _353  and  _354
REMARK  129  A    between atoms: _353  and  _356
REMARK  130  A    between atoms: _359  and  _361
REMARK  131  A    between atoms: _361  and  _362
REMARK  132  A    between atoms: _361  and  _364
REMARK  133  A    between atoms: _364  and  _365
REMARK  134  A    between atoms: _375  and  _377
REMARK  135  A    between atoms: _377  and  _378
REMARK  136  A    between atoms: _377  and  _380
REMARK  137  A    between atoms: _380  and  _381
REMARK  138  A    between atoms: _386  and  _388
REMARK  139  A    between atoms: _388  and  _389
REMARK  140  A    between atoms: _388  and  _391
REMARK  141  A    between atoms: _391  and  _392
REMARK  142  A    between atoms: _392  and  _393
REMARK  143  A    between atoms: _393  and  _394
REMARK                            x       y       z     vdW  Elec       q    Type
REMARK                         _______ _______ _______ _____ _____    ______ ____
ROOT
ATOM      1  CB  ASN A   1      12.653   2.732   6.960  0.00  0.00    +0.110 C 
ENDROOT
BRANCH   1   2
ATOM      2  CG  ASN A   1      13.795   2.554   7.913  0.00  0.00    +0.221 C 
ATOM      3  OD1 ASN A   1      13.883   1.531   8.620  0.00  0.00    -0.275 OA
ATOM      4  ND2 ASN A   1      14.701   3.557   7.960  0.00  0.00    -0.329 N 
ATOM      5 HD21 ASN A   1      15.514   3.494   8.606  0.00  0.00    +0.145 HD
ATOM      6 HD22 ASN A   1      14.585   4.392   7.350  0.00  0.00    +0.145 HD
ENDBRANCH   1   2
BRANCH   1   7
ATOM      7  CA  ASN A   1      11.878   1.390   6.715  0.00  0.00    +0.142 C 
BRANCH   7   8
ATOM      8  N   ASN A   1      12.722   0.510   5.925  0.00  0.00    -0.239 NA
ATOM      9  H   ASN A   1      13.266   0.886   5.122  0.00  0.00    +0.142 HD
ENDBRANCH   7   8
BRANCH   7  10
ATOM     10  C   ASN A   1      10.711   1.782   5.863  0.00  0.00    +0.225 C 
ATOM     11  O   ASN A   1      10.890   2.229   4.703  0.00  0.00    -0.287 OA
ENDBRANCH   7  10
ENDBRANCH   1   7
TORSDOF 4
REMARK  Name = ../refined-set-2016/3s76/3s76_pocket.pdb
REMARK  143 active torsions:
REMARK  status: ('A' for Active; 'I' for Inactive)
REMARK    1  A    between atoms: _1  and  _3
REMARK    2  A    between atoms: _3  and  _4
REMARK    3  A    between atoms: _3  and  _6
REMARK    4  A    between atoms: _6  and  _7
REMARK    5  A    between atoms: _17  and  _19
REMARK    6  A    between atoms: _19  and  _20
REMARK    7  A    between atoms: _19  and  _22
REMARK    8  A    between atoms: _22  and  _23
REMARK    9  A    between atoms: _28  and  _29
REMARK   10  A    between atoms: _31  and  _33
REMARK   11  A    between atoms: _33  and  _34
REMARK   12  A    between atoms: _33  and  _36
REMARK   13  A    between atoms: _36  and  _37
REMARK   14  A    between atoms: _40  and  _41
REMARK   15  A    between atoms: _46  and  _48
REMARK   16  A    between atoms: _48  and  _49
REMARK   17  A    between atoms: _48  and  _51
REMARK   18  A    between atoms: _51  and  _52
REMARK   19  A    between atoms: _57  and  _59
REMARK   20  A    between atoms: _59  and  _60
REMARK   21  A    between atoms: _63  and  _65
REMARK   22  A    between atoms: _65  and  _66
REMARK   23  A    between atoms: _65  and  _68
REMARK   24  A    between atoms: _68  and  _69
REMARK   25  A    between atoms: _74  and  _76
REMARK   26  A    between atoms: _76  and  _77
REMARK   27  A    between atoms: _76  and  _79
REMARK   28  A    between atoms: _79  and  _80
REMARK   29  A    between atoms: _83  and  _85
REMARK   30  A    between atoms: _85  and  _86
REMARK   31  A    between atoms: _85  and  _88
REMARK   32  A    between atoms: _88  and  _89
REMARK   33  A    between atoms: _89  and  _90
REMARK   34  A    between atoms: _95  and  _97
REMARK   35  A    between atoms: _97  and  _98
REMARK   36  A    between atoms: _97  and  _100
REMARK   37  A    between atoms: _100  and  _101
REMARK   38  A    between atoms: _107  and  _109
REMARK   39  A    between atoms: _120  and  _123
REMARK   40  A    between atoms: _123  and  _124
REMARK   41  A    between atoms: _132  and  _133
REMARK   42  A    between atoms: _141  and  _143
REMARK   43  A    between atoms: _143  and  _144
REMARK   44  A    between atoms: _143  and  _146
REMARK   45  A    between atoms: _146  and  _147
REMARK   46  A    between atoms: _147  and  _148
REMARK   47  A    between atoms: _151  and  _153
REMARK   48  A    between atoms: _153  and  _154
REMARK   49  A    between atoms: _153  and  _156
REMARK   50  A    between atoms: _156  and  _157
REMARK   51  A    between atoms: _162  and  _164
REMARK   52  A    between atoms: _164  and  _165
REMARK   53  A    between atoms: _164  and  _167
REMARK   54  A    between atoms: _167  and  _168
REMARK   55  A    between atoms: _168  and  _169
REMARK   56  A    between atoms: _172  and  _174
REMARK   57  A    between atoms: _174  and  _175
REMARK   58  A    between atoms: _174  and  _177
REMARK   59  A    between atoms: _177  and  _178
REMARK   60  A    between atoms: _181  and  _183
REMARK   61  A    between atoms: _183  and  _184
REMARK   62  A    between atoms: _183  and  _186
REMARK   63  A    between atoms: _186  and  _187
REMARK   64  A    between atoms: _188  and  ZN_403
REMARK   65  A    between atoms: _192  and  _194
REMARK   66  A    between atoms: _194  and  _195
REMARK   67  A    between atoms: _194  and  _197
REMARK   68  A    between atoms: _197  and  _198
REMARK   69  A    between atoms: _201  and  _203
REMARK   70  A    between atoms: _203  and  _204
REMARK   71  A    between atoms: _203  and  _206
REMARK   72  A    between atoms: _209  and  _211
REMARK   73  A    between atoms: _211  and  _212
REMARK   74  A    between atoms: _211  and  _214
REMARK   75  A    between atoms: _214  and  _215
REMARK   76  A    between atoms: _220  and  _222
REMARK   77  A    between atoms: _222  and  _223
REMARK   78  A    between atoms: _222  and  _225
REMARK   79  A    between atoms: _225  and  _226
REMARK   80  A    between atoms: _232  and  _234
REMARK   81  A    between atoms: _234  and  _235
REMARK   82  A    between atoms: _234  and  _237
REMARK   83  A    between atoms: _240  and  _242
REMARK   84  A    between atoms: _242  and  _243
REMARK   85  A    between atoms: _242  and  _245
REMARK   86  A    between atoms: _245  and  _246
REMARK   87  A    between atoms: _249  and  _251
REMARK   88  A    between atoms: _251  and  _252
REMARK   89  A    between atoms: _255  and  _257
REMARK   90  A    between atoms: _257  and  _258
REMARK   91  A    between atoms: _257  and  _260
REMARK   92  A    between atoms: _263  and  _265
REMARK   93  A    between atoms: _265  and  _266
REMARK   94  A    between atoms: _265  and  _268
REMARK   95  A    between atoms: _268  and  _269
REMARK   96  A    between atoms: _272  and  _274
REMARK   97  A    between atoms: _274  and  _275
REMARK   98  A    between atoms: _277  and  _279
REMARK   99  A    between atoms: _279  and  _280
REMARK  100  A    between atoms: _279  and  _282
REMARK  101  A    between atoms: _282  and  _283
REMARK  102  A    between atoms: _285  and  _287
REMARK  103  A    between atoms: _287  and  _288
REMARK  104  A    between atoms: _287  and  _290
REMARK  105  A    between atoms: _290  and  _291
REMARK  106  A    between atoms: _294  and  _296
REMARK  107  A    between atoms: _296  and  _297
REMARK  108  A    between atoms: _296  and  _299
REMARK  109  A    between atoms: _299  and  _300
REMARK  110  A    between atoms: _303  and  _305
REMARK  111  A    between atoms: _305  and  _306
REMARK  112  A    between atoms: _305  and  _308
REMARK  113  A    between atoms: _308  and  _309
REMARK  114  A    between atoms: _313  and  _314
REMARK  115  A    between atoms: _320  and  _321
REMARK  116  A    between atoms: _326  and  _328
REMARK  117  A    between atoms: _328  and  _329
REMARK  118  A    between atoms: _328  and  _331
REMARK  119  A    between atoms: _331  and  _332
REMARK  120  A    between atoms: _335  and  _337
REMARK  121  A    between atoms: _337  and  _338
REMARK  122  A    between atoms: _337  and  _340
REMARK  123  A    between atoms: _340  and  _341
REMARK  124  A    between atoms: _344  and  _346
REMARK  125  A    between atoms: _346  and  _347
REMARK  126  A    between atoms: _346  and  _349
REMARK  127  A    between atoms: _351  and  _353
REMARK  128  A    between atoms: _353  and  _354
REMARK  129  A    between atoms: _353  and  _356
REMARK  130  A    between atoms: _359  and  _361
REMARK  131  A    between atoms: _361  and  _362
REMARK  132  A    between atoms: _361  and  _364
REMARK  133  A    between atoms: _364  and  _365
REMARK  134  A    between atoms: _375  and  _377
REMARK  135  A    between atoms: _377  and  _378
REMARK  136  A    between atoms: _377  and  _380
REMARK  137  A    between atoms: _380  and  _381
REMARK  138  A    between atoms: _386  and  _388
REMARK  139  A    between atoms: _388  and  _389
REMARK  140  A    between atoms: _388  and  _391
REMARK  141  A    between atoms: _391  and  _392
REMARK  142  A    between atoms: _392  and  _393
REMARK  143  A    between atoms: _393  and  _394
REMARK                            x       y       z     vdW  Elec       q    Type
REMARK                         _______ _______ _______ _____ _____    ______ ____
ROOT
ATOM      1  C   UNK A   4      10.789  -1.426  10.354  0.00  0.00    +0.000 C 
ATOM      2  C   UNK A   4      10.698  -2.689  11.216  0.00  0.00    +0.000 C 
ATOM      3  O   UNK A   4      10.050  -2.713  12.266  0.00  0.00    +0.000 OA
ATOM      4  N   VAL A   5      11.379  -3.726  10.760  0.00  0.00    +0.000 N 
ATOM      5  CA  VAL A   5      11.466  -5.054  11.443  0.00  0.00    +0.000 C 
ATOM      6  C   VAL A   5      12.883  -5.475  11.660  0.00  0.00    +0.000 C 
ATOM      7  N   UNK A   6      13.001  -6.431  12.578  0.00  0.00    +0.000 N 
ATOM      8  H   UNK A   6      12.185  -6.636  13.190  0.00  0.00    +0.000 HD
ATOM      9  C   UNK A   6      14.210  -7.195  12.762  0.00  0.00    +0.000 C 
ATOM     10  C   UNK A   6      14.825  -6.954  14.131  0.00  0.00    +0.000 C 
ATOM     11  C   UNK A   6      15.099  -5.500  14.423  0.00  0.00    +0.000 A 
ATOM     12  C   UNK A   6      14.294  -4.478  14.780  0.00  0.00    +0.000 A 
ATOM     13  N   UNK A   6      15.085  -3.328  14.804  0.00  0.00    +0.000 N 
ATOM     14 ZN   UNK A   6      14.308  -1.558  15.405  0.00  0.00    +0.000 Zn
ATOM     15  N   UNK A   4      13.536  -0.699  13.748  0.00  0.00    +0.000 N 
ATOM     16  C   UNK A   4      13.024   0.519  13.545  0.00  0.00    +0.000 A 
ATOM     17  N   UNK A   4      12.539   0.564  12.308  0.00  0.00    +0.000 NA
ATOM     18  C   UNK A   4      12.731  -0.652  11.695  0.00  0.00    +0.000 A 
ATOM     19  C   UNK A   4      13.370  -1.458  12.607  0.00  0.00    +0.000 A 
ATOM     20  C   UNK A   6      16.332  -3.643  14.522  0.00  0.00    +0.000 A 
ATOM     21  N   UNK A   6      16.355  -4.949  14.186  0.00  0.00    +0.000 NA
ATOM     22  O   VAL A   5      13.809  -5.009  11.026  0.00  0.00    +0.000 OA
ATOM     23  H   VAL A   5      11.891  -3.610   9.862  0.00  0.00    +0.000 HD
ATOM     24  C   UNK A   4      12.239  -0.935  10.308  0.00  0.00    +0.000 C 
ENDROOT
BRANCH  14  25
ATOM     25  N   UNK A   6      12.852  -2.257  16.648  0.00  0.00    +0.000 N 
ATOM     26  C   UNK A   6      13.112  -3.182  17.572  0.00  0.00    +0.000 A 
ATOM     27  N   UNK A   6      11.980  -3.521  18.184  0.00  0.00    +0.000 NA
ATOM     28  C   UNK A   6      10.935  -2.835  17.591  0.00  0.00    +0.000 A 
ATOM     29  C   UNK A   6      11.475  -2.017  16.654  0.00  0.00    +0.000 A 
BRANCH  29  30
ATOM     30  C   UNK A   6      10.757  -1.034  15.765  0.00  0.00    +0.000 C 
BRANCH  30  31
ATOM     31  C   UNK A   6       9.246  -1.318  15.691  0.00  0.00    +0.000 C 
BRANCH  31  32
ATOM     32  C   UNK A   6       8.633  -0.175  14.937  0.00  0.00    +0.000 C 
ATOM     33  N   UNK A   4       7.629   0.419  15.606  0.00  0.00    +0.000 N 
ATOM     34  H   UNK A   4       7.287  -0.017  16.486  0.00  0.00    +0.000 HD
ATOM     35  O   UNK A   6       9.009   0.164  13.805  0.00  0.00    +0.000 OA
BRANCH  33  36
ATOM     36  C   UNK A   4       6.993   1.669  15.136  0.00  0.00    +0.000 C 
BRANCH  36  37
ATOM     37  C   UNK A   4       7.634   2.770  15.929  0.00  0.00    +0.000 C 
ATOM     38  O   UNK A   4       7.450   2.872  17.171  0.00  0.00    +0.000 OA
ATOM     39  N   VAL A   5       8.364   3.641  15.220  0.00  0.00    +0.000 N 
ATOM     40  H   VAL A   5       8.317   3.618  14.181  0.00  0.00    +0.000 HD
BRANCH  39  41
ATOM     41  CA  VAL A   5       9.241   4.640  15.887  0.00  0.00    +0.000 C 
BRANCH  41  42
ATOM     42  C   VAL A   5       8.556   5.999  15.891  0.00  0.00    +0.000 C 
ATOM     43  N   UNK A   6       8.467   6.638  17.086  0.00  0.00    +0.000 N 
ATOM     44  H   UNK A   6       8.887   6.212  17.937  0.00  0.00    +0.000 HD
ATOM     45  O   VAL A   5       8.108   6.483  14.799  0.00  0.00    +0.000 OA
BRANCH  43  46
ATOM     46  C   UNK A   6       7.762   7.961  17.178  0.00  0.00    +0.000 C 
BRANCH  46  47
ATOM     47  C   UNK A   6       8.659   8.923  17.948  0.00  0.00    +0.000 C 
ATOM     48  O   UNK A   6       9.426   8.502  18.835  0.00  0.00    +0.000 OA
ENDBRANCH  46  47
BRANCH  46  49
ATOM     49  C   UNK A   6       6.491   7.800  18.018  0.00  0.00    +0.000 C 
BRANCH  49  50
ATOM     50  C   UNK A   6       5.608   6.655  17.576  0.00  0.00    +0.000 A 
ATOM     51  N   UNK A   6       5.882   5.326  17.891  0.00  0.00    +0.000 NA
ATOM     52  C   UNK A   6       4.877   4.562  17.460  0.00  0.00    +0.000 A 
ATOM     53  N   UNK A   6       3.967   5.342  16.894  0.00  0.00    +0.000 NA
ATOM     54  C   UNK A   6       4.375   6.653  16.982  0.00  0.00    +0.000 A 
ENDBRANCH  49  50
ENDBRANCH  46  49
ENDBRANCH  43  46
ENDBRANCH  41  42
BRANCH  41  55
ATOM     55  CB  VAL A   5      10.574   4.750  15.128  0.00  0.00    +0.000 C 
ATOM     56  CG2 VAL A   5      11.533   5.813  15.807  0.00  0.00    +0.000 C 
ATOM     57  CG1 VAL A   5      11.287   3.341  15.024  0.00  0.00    +0.000 C 
ENDBRANCH  41  55
ENDBRANCH  39  41
ENDBRANCH  36  37
BRANCH  36  58
ATOM     58  C   UNK A   4       5.495   1.613  15.381  0.00  0.00    +0.000 C 
BRANCH  58  59
ATOM     59  C   UNK A   4       4.836   0.536  14.461  0.00  0.00    +0.000 C 
ATOM     60  C   UNK A   4       4.040  -0.495  15.277  0.00  0.00    +0.000 C 
ATOM     61  C   UNK A   4       3.940   1.156  13.402  0.00  0.00    +0.000 C 
ENDBRANCH  58  59
ENDBRANCH  36  58
ENDBRANCH  33  36
ENDBRANCH  31  32
BRANCH  31  62
ATOM     62  N   UNK A   6       9.018  -2.547  14.922  0.00  0.00    +0.000 N 
ATOM     63  C   LEU A   2       8.433  -3.640  15.413  0.00  0.00    +0.000 C 
ATOM     64  O   LEU A   2       8.040  -3.726  16.554  0.00  0.00    +0.000 OA
ATOM     65  H   UNK A   6       9.333  -2.567  13.931  0.00  0.00    +0.000 HD
BRANCH  63  66
ATOM     66  CA  LEU A   2       8.263  -4.815  14.428  0.00  0.00    +0.000 C 
BRANCH  66  67
ATOM     67  N   LEU A   2       8.626  -6.081  15.089  0.00  0.00    +0.000 N 
ATOM     68  H   LEU A   2       7.903  -6.553  15.669  0.00  0.00    +0.000 HD
ATOM     69  C   GLU A   1       9.802  -6.648  14.992  0.00  0.00    +0.000 C 
ATOM     70  O   GLU A   1      10.683  -6.255  14.278  0.00  0.00    +0.000 OA
BRANCH  69  71
ATOM     71  CA  GLU A   1       9.953  -7.889  15.857  0.00  0.00    +0.000 C 
BRANCH  71  72
ATOM     72  N   GLU A   1      10.521  -8.929  14.973  0.00  0.00    +0.000 NA
ATOM     73  H   GLU A   1      11.180  -8.656  14.216  0.00  0.00    +0.000 HD
ENDBRANCH  71  72
BRANCH  71  74
ATOM     74  CB  GLU A   1      10.911  -7.637  17.035  0.00  0.00    +0.000 C 
BRANCH  74  75
ATOM     75  CG  GLU A   1      10.393  -6.656  18.077  0.00  0.00    +0.000 C 
BRANCH  75  76
ATOM     76  CD  GLU A   1      11.314  -6.576  19.267  0.00  0.00    +0.000 C 
ATOM     77  OE2 GLU A   1      11.336  -5.490  19.891  0.00  0.00    +0.000 OA
ATOM     78  OE1 GLU A   1      11.986  -7.578  19.585  0.00  0.00    +0.000 OA
ENDBRANCH  75  76
ENDBRANCH  74  75
ENDBRANCH  71  74
ENDBRANCH  69  71
ENDBRANCH  66  67
BRANCH  66  79
ATOM     79  CB  LEU A   2       6.722  -4.903  14.103  0.00  0.00    +0.000 C 
BRANCH  79  80
ATOM     80  CG  LEU A   2       5.939  -3.625  13.678  0.00  0.00    +0.000 C 
ATOM     81  CD2 LEU A   2       4.421  -3.965  13.434  0.00  0.00    +0.000 C 
ATOM     82  CD1 LEU A   2       6.566  -2.963  12.404  0.00  0.00    +0.000 C 
ENDBRANCH  79  80
ENDBRANCH  66  79
ENDBRANCH  63  66
ENDBRANCH  31  62
ENDBRANCH  30  31
ENDBRANCH  29  30
ENDBRANCH  14  25
BRANCH   1  84
ATOM     83  C   UNK A   3       9.341   0.549  10.250  0.00  0.00    +0.000 C 
ATOM     84  N   UNK A   4       9.875  -0.439  10.953  0.00  0.00    +0.000 N 
ATOM     85  H   UNK A   4       9.640  -0.520  11.963  0.00  0.00    +0.000 HD
ATOM     86  O   UNK A   3       9.617   0.750   9.089  0.00  0.00    +0.000 OA
BRANCH  83  87
ATOM     87  C   UNK A   3       8.434   1.452  11.048  0.00  0.00    +0.000 C 
BRANCH  87  90
ATOM     88  C   LEU A   2       8.574   3.831  11.123  0.00  0.00    +0.000 C 
ATOM     89  O   LEU A   2       8.510   3.906  12.344  0.00  0.00    +0.000 OA
ATOM     90  N   UNK A   3       8.282   2.761  10.409  0.00  0.00    +0.000 N 
ATOM     91  H   UNK A   3       7.955   2.844   9.425  0.00  0.00    +0.000 HD
BRANCH  88  92
ATOM     92  CA  LEU A   2       8.833   5.069  10.325  0.00  0.00    +0.000 C 
BRANCH  92  94
ATOM     93  C   GLU A   1       8.448   7.491  10.665  0.00  0.00    +0.000 C 
ATOM     94  N   LEU A   2       8.541   6.246  11.210  0.00  0.00    +0.000 N 
ATOM     95  H   LEU A   2       8.411   6.112  12.233  0.00  0.00    +0.000 HD
ATOM     96  O   GLU A   1       8.483   7.679   9.444  0.00  0.00    +0.000 OA
BRANCH  93  97
ATOM     97  CA  GLU A   1       8.208   8.696  11.609  0.00  0.00    +0.000 C 
BRANCH  97  98
ATOM     98  CB  GLU A   1       9.537   9.358  12.135  0.00  0.00    +0.000 C 
ATOM     99  CG2 GLU A   1      10.227   8.475  13.163  0.00  0.00    +0.000 C 
BRANCH  98 100
ATOM    100  CG1 GLU A   1      10.530   9.467  10.984  0.00  0.00    +0.000 C 
ATOM    101  CD1 GLU A   1      11.805  10.277  11.361  0.00  0.00    +0.000 C 
ENDBRANCH  98 100
ENDBRANCH  97  98
BRANCH  97 102
ATOM    102  N   GLU A   1       7.278   8.311  12.703  0.00  0.00    +0.000 NA
ATOM    103  H   GLU A   1       7.615   7.668  13.448  0.00  0.00    +0.000 HD
ENDBRANCH  97 102
ENDBRANCH  93  97
ENDBRANCH  92  94
BRANCH  92 104
ATOM    104  CB  LEU A   2      10.277   5.018   9.714  0.00  0.00    +0.000 C 
BRANCH 104 105
ATOM    105  CG  LEU A   2      11.359   5.197  10.792  0.00  0.00    +0.000 C 
BRANCH 105 106
ATOM    106  CD  LEU A   2      12.048   3.913  11.222  0.00  0.00    +0.000 C 
ATOM    107  NE2 LEU A   2      13.297   4.062  11.665  0.00  0.00    +0.000 N 
ATOM    108 HE21 LEU A   2      13.831   3.236  12.002  0.00  0.00    +0.000 HD
ATOM    109 HE22 LEU A   2      13.737   5.004  11.674  0.00  0.00    +0.000 HD
ATOM    110  OE1 LEU A   2      11.455   2.848  11.176  0.00  0.00    +0.000 OA
ENDBRANCH 105 106
ENDBRANCH 104 105
ENDBRANCH  92 104
ENDBRANCH  88  92
ENDBRANCH  87  90
BRANCH  87 111
ATOM    111  C   UNK A   3       7.021   0.765  11.286  0.00  0.00    +0.000 C 
BRANCH 111 112
ATOM    112  C   UNK A   3       6.321   0.236  10.085  0.00  0.00    +0.000 A 
ATOM    113  C   UNK A   3       5.166   0.958   9.619  0.00  0.00    +0.000 A 
ATOM    114  C   UNK A   3       4.469   0.502   8.526  0.00  0.00    +0.000 A 
ATOM    115  C   UNK A   3       4.832  -0.675   7.878  0.00  0.00    +0.000 A 
ATOM    116  C   UNK A   3       6.018  -1.367   8.316  0.00  0.00    +0.000 A 
ATOM    117  C   UNK A   3       6.709  -0.923   9.414  0.00  0.00    +0.000 A 
ENDBRANCH 111 112
ENDBRANCH  87 111
ENDBRANCH  83  87
ENDBRANCH   1  84
BRANCH   9 118
ATOM    118  C   UNK A   6      13.817  -8.661  12.660  0.00  0.00    +0.000 C 
ATOM    119  O   UNK A   6      12.747  -8.999  13.166  0.00  0.00    +0.000 OA
ENDBRANCH   9 118
BRANCH   5 120
ATOM    120  CB  VAL A   5      10.746  -6.180  10.599  0.00  0.00    +0.000 C 
BRANCH 120 121
ATOM    121  CG  VAL A   5       9.297  -5.836  10.276  0.00  0.00    +0.000 A 
ATOM    122  CD2 VAL A   5       8.251  -6.463  10.999  0.00  0.00    +0.000 A 
ATOM    123  CE2 VAL A   5       6.924  -6.238  10.619  0.00  0.00    +0.000 A 
ATOM    124  CZ  VAL A   5       6.639  -5.344   9.523  0.00  0.00    +0.000 A 
ATOM    125  CE1 VAL A   5       7.670  -4.759   8.809  0.00  0.00    +0.000 A 
ATOM    126  CD1 VAL A   5       9.009  -5.002   9.213  0.00  0.00    +0.000 A 
ENDBRANCH 120 121
ENDBRANCH   5 120
TORSDOF 42
REMARK  Name = ../refined-set-2016/3s76/3s76_pocket.pdb
REMARK  143 active torsions:
REMARK  status: ('A' for Active; 'I' for Inactive)
REMARK    1  A    between atoms: _1  and  _3
REMARK    2  A    between atoms: _3  and  _4
REMARK    3  A    between atoms: _3  and  _6
REMARK    4  A    between atoms: _6  and  _7
REMARK    5  A    between atoms: _17  and  _19
REMARK    6  A    between atoms: _19  and  _20
REMARK    7  A    between atoms: _19  and  _22
REMARK    8  A    between atoms: _22  and  _23
REMARK    9  A    between atoms: _28  and  _29
REMARK   10  A    between atoms: _31  and  _33
REMARK   11  A    between atoms: _33  and  _34
REMARK   12  A    between atoms: _33  and  _36
REMARK   13  A    between atoms: _36  and  _37
REMARK   14  A    between atoms: _40  and  _41
REMARK   15  A    between atoms: _46  and  _48
REMARK   16  A    between atoms: _48  and  _49
REMARK   17  A    between atoms: _48  and  _51
REMARK   18  A    between atoms: _51  and  _52
REMARK   19  A    between atoms: _57  and  _59
REMARK   20  A    between atoms: _59  and  _60
REMARK   21  A    between atoms: _63  and  _65
REMARK   22  A    between atoms: _65  and  _66
REMARK   23  A    between atoms: _65  and  _68
REMARK   24  A    between atoms: _68  and  _69
REMARK   25  A    between atoms: _74  and  _76
REMARK   26  A    between atoms: _76  and  _77
REMARK   27  A    between atoms: _76  and  _79
REMARK   28  A    between atoms: _79  and  _80
REMARK   29  A    between atoms: _83  and  _85
REMARK   30  A    between atoms: _85  and  _86
REMARK   31  A    between atoms: _85  and  _88
REMARK   32  A    between atoms: _88  and  _89
REMARK   33  A    between atoms: _89  and  _90
REMARK   34  A    between atoms: _95  and  _97
REMARK   35  A    between atoms: _97  and  _98
REMARK   36  A    between atoms: _97  and  _100
REMARK   37  A    between atoms: _100  and  _101
REMARK   38  A    between atoms: _107  and  _109
REMARK   39  A    between atoms: _120  and  _123
REMARK   40  A    between atoms: _123  and  _124
REMARK   41  A    between atoms: _132  and  _133
REMARK   42  A    between atoms: _141  and  _143
REMARK   43  A    between atoms: _143  and  _144
REMARK   44  A    between atoms: _143  and  _146
REMARK   45  A    between atoms: _146  and  _147
REMARK   46  A    between atoms: _147  and  _148
REMARK   47  A    between atoms: _151  and  _153
REMARK   48  A    between atoms: _153  and  _154
REMARK   49  A    between atoms: _153  and  _156
REMARK   50  A    between atoms: _156  and  _157
REMARK   51  A    between atoms: _162  and  _164
REMARK   52  A    between atoms: _164  and  _165
REMARK   53  A    between atoms: _164  and  _167
REMARK   54  A    between atoms: _167  and  _168
REMARK   55  A    between atoms: _168  and  _169
REMARK   56  A    between atoms: _172  and  _174
REMARK   57  A    between atoms: _174  and  _175
REMARK   58  A    between atoms: _174  and  _177
REMARK   59  A    between atoms: _177  and  _178
REMARK   60  A    between atoms: _181  and  _183
REMARK   61  A    between atoms: _183  and  _184
REMARK   62  A    between atoms: _183  and  _186
REMARK   63  A    between atoms: _186  and  _187
REMARK   64  A    between atoms: _188  and  ZN_403
REMARK   65  A    between atoms: _192  and  _194
REMARK   66  A    between atoms: _194  and  _195
REMARK   67  A    between atoms: _194  and  _197
REMARK   68  A    between atoms: _197  and  _198
REMARK   69  A    between atoms: _201  and  _203
REMARK   70  A    between atoms: _203  and  _204
REMARK   71  A    between atoms: _203  and  _206
REMARK   72  A    between atoms: _209  and  _211
REMARK   73  A    between atoms: _211  and  _212
REMARK   74  A    between atoms: _211  and  _214
REMARK   75  A    between atoms: _214  and  _215
REMARK   76  A    between atoms: _220  and  _222
REMARK   77  A    between atoms: _222  and  _223
REMARK   78  A    between atoms: _222  and  _225
REMARK   79  A    between atoms: _225  and  _226
REMARK   80  A    between atoms: _232  and  _234
REMARK   81  A    between atoms: _234  and  _235
REMARK   82  A    between atoms: _234  and  _237
REMARK   83  A    between atoms: _240  and  _242
REMARK   84  A    between atoms: _242  and  _243
REMARK   85  A    between atoms: _242  and  _245
REMARK   86  A    between atoms: _245  and  _246
REMARK   87  A    between atoms: _249  and  _251
REMARK   88  A    between atoms: _251  and  _252
REMARK   89  A    between atoms: _255  and  _257
REMARK   90  A    between atoms: _257  and  _258
REMARK   91  A    between atoms: _257  and  _260
REMARK   92  A    between atoms: _263  and  _265
REMARK   93  A    between atoms: _265  and  _266
REMARK   94  A    between atoms: _265  and  _268
REMARK   95  A    between atoms: _268  and  _269
REMARK   96  A    between atoms: _272  and  _274
REMARK   97  A    between atoms: _274  and  _275
REMARK   98  A    between atoms: _277  and  _279
REMARK   99  A    between atoms: _279  and  _280
REMARK  100  A    between atoms: _279  and  _282
REMARK  101  A    between atoms: _282  and  _283
REMARK  102  A    between atoms: _285  and  _287
REMARK  103  A    between atoms: _287  and  _288
REMARK  104  A    between atoms: _287  and  _290
REMARK  105  A    between atoms: _290  and  _291
REMARK  106  A    between atoms: _294  and  _296
REMARK  107  A    between atoms: _296  and  _297
REMARK  108  A    between atoms: _296  and  _299
REMARK  109  A    between atoms: _299  and  _300
REMARK  110  A    between atoms: _303  and  _305
REMARK  111  A    between atoms: _305  and  _306
REMARK  112  A    between atoms: _305  and  _308
REMARK  113  A    between atoms: _308  and  _309
REMARK  114  A    between atoms: _313  and  _314
REMARK  115  A    between atoms: _320  and  _321
REMARK  116  A    between atoms: _326  and  _328
REMARK  117  A    between atoms: _328  and  _329
REMARK  118  A    between atoms: _328  and  _331
REMARK  119  A    between atoms: _331  and  _332
REMARK  120  A    between atoms: _335  and  _337
REMARK  121  A    between atoms: _337  and  _338
REMARK  122  A    between atoms: _337  and  _340
REMARK  123  A    between atoms: _340  and  _341
REMARK  124  A    between atoms: _344  and  _346
REMARK  125  A    between atoms: _346  and  _347
REMARK  126  A    between atoms: _346  and  _349
REMARK  127  A    between atoms: _351  and  _353
REMARK  128  A    between atoms: _353  and  _354
REMARK  129  A    between atoms: _353  and  _356
REMARK  130  A    between atoms: _359  and  _361
REMARK  131  A    between atoms: _361  and  _362
REMARK  132  A    between atoms: _361  and  _364
REMARK  133  A    between atoms: _364  and  _365
REMARK  134  A    between atoms: _375  and  _377
REMARK  135  A    between atoms: _377  and  _378
REMARK  136  A    between atoms: _377  and  _380
REMARK  137  A    between atoms: _380  and  _381
REMARK  138  A    between atoms: _386  and  _388
REMARK  139  A    between atoms: _388  and  _389
REMARK  140  A    between atoms: _388  and  _391
REMARK  141  A    between atoms: _391  and  _392
REMARK  142  A    between atoms: _392  and  _393
REMARK  143  A    between atoms: _393  and  _394
REMARK                            x       y       z     vdW  Elec       q    Type
REMARK                         _______ _______ _______ _____ _____    ______ ____
ROOT
ATOM      1  C   GLU A   1      15.102  -8.291  21.230  0.00  0.00    +0.238 C 
ATOM      2  O   GLU A   1      15.873  -8.849  22.000  0.00  0.00    -0.274 OA
ATOM      3  N   HIS A   2      13.894  -7.844  21.619  0.00  0.00    -0.298 N 
ATOM      4  H   HIS A   2      13.312  -7.247  20.996  0.00  0.00    +0.150 HD
ENDROOT
BRANCH   1   5
ATOM      5  CA  GLU A   1      15.490  -8.179  19.764  0.00  0.00    +0.145 C 
BRANCH   5   6
ATOM      6  N   GLU A   1      14.460  -8.831  18.925  0.00  0.00    -0.238 NA
ATOM      7  H   GLU A   1      13.628  -8.283  18.627  0.00  0.00    +0.142 HD
ENDBRANCH   5   6
BRANCH   5   8
ATOM      8  CB  GLU A   1      15.486  -6.697  19.362  0.00  0.00    +0.038 C 
BRANCH   8   9
ATOM      9  CG  GLU A   1      15.977  -6.597  17.853  0.00  0.00    +0.116 C 
BRANCH   9  10
ATOM     10  CD  GLU A   1      16.622  -5.265  17.570  0.00  0.00    +0.365 C 
ATOM     11  OE2 GLU A   1      16.016  -4.206  17.795  0.00  0.00    -0.246 OA
ATOM     12  OE1 GLU A   1      17.794  -5.321  17.119  0.00  0.00    -0.246 OA
ENDBRANCH   9  10
ENDBRANCH   8   9
ENDBRANCH   5   8
ENDBRANCH   1   5
BRANCH   3  13
ATOM     13  CA  HIS A   2      13.434  -8.227  22.942  0.00  0.00    +0.143 C 
BRANCH  13  14
ATOM     14  C   HIS A   2      13.135  -9.708  22.986  0.00  0.00    +0.227 C 
ATOM     15  O   HIS A   2      12.803 -10.326  21.968  0.00  0.00    -0.286 OA
ENDBRANCH  13  14
BRANCH  13  16
ATOM     16  CB  HIS A   2      12.180  -7.403  23.303  0.00  0.00    +0.075 C 
BRANCH  16  17
ATOM     17  CG  HIS A   2      12.493  -5.946  23.470  0.00  0.00    +0.082 A 
ATOM     18  CD2 HIS A   2      12.971  -5.241  24.538  0.00  0.00    +0.115 A 
ATOM     19  NE2 HIS A   2      13.217  -3.962  24.114  0.00  0.00    -0.221 NA
ATOM     20  CE1 HIS A   2      12.927  -3.870  22.815  0.00  0.00    +0.199 A 
ATOM     21  ND1 HIS A   2      12.466  -5.064  22.397  0.00  0.00    -0.227 NA
ENDBRANCH  16  17
ENDBRANCH  13  16
ENDBRANCH   3  13
TORSDOF 9
REMARK  Name = ../refined-set-2016/3s76/3s76_pocket.pdb
REMARK  143 active torsions:
REMARK  status: ('A' for Active; 'I' for Inactive)
REMARK    1  A    between atoms: _1  and  _3
REMARK    2  A    between atoms: _3  and  _4
REMARK    3  A    between atoms: _3  and  _6
REMARK    4  A    between atoms: _6  and  _7
REMARK    5  A    between atoms: _17  and  _19
REMARK    6  A    between atoms: _19  and  _20
REMARK    7  A    between atoms: _19  and  _22
REMARK    8  A    between atoms: _22  and  _23
REMARK    9  A    between atoms: _28  and  _29
REMARK   10  A    between atoms: _31  and  _33
REMARK   11  A    between atoms: _33  and  _34
REMARK   12  A    between atoms: _33  and  _36
REMARK   13  A    between atoms: _36  and  _37
REMARK   14  A    between atoms: _40  and  _41
REMARK   15  A    between atoms: _46  and  _48
REMARK   16  A    between atoms: _48  and  _49
REMARK   17  A    between atoms: _48  and  _51
REMARK   18  A    between atoms: _51  and  _52
REMARK   19  A    between atoms: _57  and  _59
REMARK   20  A    between atoms: _59  and  _60
REMARK   21  A    between atoms: _63  and  _65
REMARK   22  A    between atoms: _65  and  _66
REMARK   23  A    between atoms: _65  and  _68
REMARK   24  A    between atoms: _68  and  _69
REMARK   25  A    between atoms: _74  and  _76
REMARK   26  A    between atoms: _76  and  _77
REMARK   27  A    between atoms: _76  and  _79
REMARK   28  A    between atoms: _79  and  _80
REMARK   29  A    between atoms: _83  and  _85
REMARK   30  A    between atoms: _85  and  _86
REMARK   31  A    between atoms: _85  and  _88
REMARK   32  A    between atoms: _88  and  _89
REMARK   33  A    between atoms: _89  and  _90
REMARK   34  A    between atoms: _95  and  _97
REMARK   35  A    between atoms: _97  and  _98
REMARK   36  A    between atoms: _97  and  _100
REMARK   37  A    between atoms: _100  and  _101
REMARK   38  A    between atoms: _107  and  _109
REMARK   39  A    between atoms: _120  and  _123
REMARK   40  A    between atoms: _123  and  _124
REMARK   41  A    between atoms: _132  and  _133
REMARK   42  A    between atoms: _141  and  _143
REMARK   43  A    between atoms: _143  and  _144
REMARK   44  A    between atoms: _143  and  _146
REMARK   45  A    between atoms: _146  and  _147
REMARK   46  A    between atoms: _147  and  _148
REMARK   47  A    between atoms: _151  and  _153
REMARK   48  A    between atoms: _153  and  _154
REMARK   49  A    between atoms: _153  and  _156
REMARK   50  A    between atoms: _156  and  _157
REMARK   51  A    between atoms: _162  and  _164
REMARK   52  A    between atoms: _164  and  _165
REMARK   53  A    between atoms: _164  and  _167
REMARK   54  A    between atoms: _167  and  _168
REMARK   55  A    between atoms: _168  and  _169
REMARK   56  A    between atoms: _172  and  _174
REMARK   57  A    between atoms: _174  and  _175
REMARK   58  A    between atoms: _174  and  _177
REMARK   59  A    between atoms: _177  and  _178
REMARK   60  A    between atoms: _181  and  _183
REMARK   61  A    between atoms: _183  and  _184
REMARK   62  A    between atoms: _183  and  _186
REMARK   63  A    between atoms: _186  and  _187
REMARK   64  A    between atoms: _188  and  ZN_403
REMARK   65  A    between atoms: _192  and  _194
REMARK   66  A    between atoms: _194  and  _195
REMARK   67  A    between atoms: _194  and  _197
REMARK   68  A    between atoms: _197  and  _198
REMARK   69  A    between atoms: _201  and  _203
REMARK   70  A    between atoms: _203  and  _204
REMARK   71  A    between atoms: _203  and  _206
REMARK   72  A    between atoms: _209  and  _211
REMARK   73  A    between atoms: _211  and  _212
REMARK   74  A    between atoms: _211  and  _214
REMARK   75  A    between atoms: _214  and  _215
REMARK   76  A    between atoms: _220  and  _222
REMARK   77  A    between atoms: _222  and  _223
REMARK   78  A    between atoms: _222  and  _225
REMARK   79  A    between atoms: _225  and  _226
REMARK   80  A    between atoms: _232  and  _234
REMARK   81  A    between atoms: _234  and  _235
REMARK   82  A    between atoms: _234  and  _237
REMARK   83  A    between atoms: _240  and  _242
REMARK   84  A    between atoms: _242  and  _243
REMARK   85  A    between atoms: _242  and  _245
REMARK   86  A    between atoms: _245  and  _246
REMARK   87  A    between atoms: _249  and  _251
REMARK   88  A    between atoms: _251  and  _252
REMARK   89  A    between atoms: _255  and  _257
REMARK   90  A    between atoms: _257  and  _258
REMARK   91  A    between atoms: _257  and  _260
REMARK   92  A    between atoms: _263  and  _265
REMARK   93  A    between atoms: _265  and  _266
REMARK   94  A    between atoms: _265  and  _268
REMARK   95  A    between atoms: _268  and  _269
REMARK   96  A    between atoms: _272  and  _274
REMARK   97  A    between atoms: _274  and  _275
REMARK   98  A    between atoms: _277  and  _279
REMARK   99  A    between atoms: _279  and  _280
REMARK  100  A    between atoms: _279  and  _282
REMARK  101  A    between atoms: _282  and  _283
REMARK  102  A    between atoms: _285  and  _287
REMARK  103  A    between atoms: _287  and  _288
REMARK  104  A    between atoms: _287  and  _290
REMARK  105  A    between atoms: _290  and  _291
REMARK  106  A    between atoms: _294  and  _296
REMARK  107  A    between atoms: _296  and  _297
REMARK  108  A    between atoms: _296  and  _299
REMARK  109  A    between atoms: _299  and  _300
REMARK  110  A    between atoms: _303  and  _305
REMARK  111  A    between atoms: _305  and  _306
REMARK  112  A    between atoms: _305  and  _308
REMARK  113  A    between atoms: _308  and  _309
REMARK  114  A    between atoms: _313  and  _314
REMARK  115  A    between atoms: _320  and  _321
REMARK  116  A    between atoms: _326  and  _328
REMARK  117  A    between atoms: _328  and  _329
REMARK  118  A    between atoms: _328  and  _331
REMARK  119  A    between atoms: _331  and  _332
REMARK  120  A    between atoms: _335  and  _337
REMARK  121  A    between atoms: _337  and  _338
REMARK  122  A    between atoms: _337  and  _340
REMARK  123  A    between atoms: _340  and  _341
REMARK  124  A    between atoms: _344  and  _346
REMARK  125  A    between atoms: _346  and  _347
REMARK  126  A    between atoms: _346  and  _349
REMARK  127  A    between atoms: _351  and  _353
REMARK  128  A    between atoms: _353  and  _354
REMARK  129  A    between atoms: _353  and  _356
REMARK  130  A    between atoms: _359  and  _361
REMARK  131  A    between atoms: _361  and  _362
REMARK  132  A    between atoms: _361  and  _364
REMARK  133  A    between atoms: _364  and  _365
REMARK  134  A    between atoms: _375  and  _377
REMARK  135  A    between atoms: _377  and  _378
REMARK  136  A    between atoms: _377  and  _380
REMARK  137  A    between atoms: _380  and  _381
REMARK  138  A    between atoms: _386  and  _388
REMARK  139  A    between atoms: _388  and  _389
REMARK  140  A    between atoms: _388  and  _391
REMARK  141  A    between atoms: _391  and  _392
REMARK  142  A    between atoms: _392  and  _393
REMARK  143  A    between atoms: _393  and  _394
REMARK                            x       y       z     vdW  Elec       q    Type
REMARK                         _______ _______ _______ _____ _____    ______ ____
ROOT
ATOM      1  CB  PHE A   1      13.456  12.811  14.044  0.00  0.00    +0.051 C 
ENDROOT
BRANCH   1   2
ATOM      2  CG  PHE A   1      14.054  11.467  14.286  0.00  0.00    -0.020 A 
ATOM      3  CD2 PHE A   1      13.276  10.487  14.922  0.00  0.00    -0.004 A 
ATOM      4  CE2 PHE A   1      13.817   9.225  15.190  0.00  0.00    -0.000 A 
ATOM      5  CZ  PHE A   1      15.114   8.967  14.853  0.00  0.00    -0.000 A 
ATOM      6  CE1 PHE A   1      15.876   9.940  14.238  0.00  0.00    -0.000 A 
ATOM      7  CD1 PHE A   1      15.398  11.176  13.943  0.00  0.00    -0.004 A 
ENDBRANCH   1   2
BRANCH   1   8
ATOM      8  CA  PHE A   1      13.659  13.820  15.201  0.00  0.00    +0.137 C 
BRANCH   8   9
ATOM      9  N   PHE A   1      13.082  15.108  14.765  0.00  0.00    -0.239 NA
ATOM     10  H   PHE A   1      12.718  15.201  13.795  0.00  0.00    +0.142 HD
ENDBRANCH   8   9
BRANCH   8  11
ATOM     11  C   PHE A   1      15.085  13.928  15.649  0.00  0.00    +0.224 C 
ATOM     12  O   PHE A   1      15.482  13.331  16.658  0.00  0.00    -0.287 OA
ENDBRANCH   8  11
ENDBRANCH   1   8
TORSDOF 4
REMARK  Name = ../refined-set-2016/3s76/3s76_pocket.pdb
REMARK  143 active torsions:
REMARK  status: ('A' for Active; 'I' for Inactive)
REMARK    1  A    between atoms: _1  and  _3
REMARK    2  A    between atoms: _3  and  _4
REMARK    3  A    between atoms: _3  and  _6
REMARK    4  A    between atoms: _6  and  _7
REMARK    5  A    between atoms: _17  and  _19
REMARK    6  A    between atoms: _19  and  _20
REMARK    7  A    between atoms: _19  and  _22
REMARK    8  A    between atoms: _22  and  _23
REMARK    9  A    between atoms: _28  and  _29
REMARK   10  A    between atoms: _31  and  _33
REMARK   11  A    between atoms: _33  and  _34
REMARK   12  A    between atoms: _33  and  _36
REMARK   13  A    between atoms: _36  and  _37
REMARK   14  A    between atoms: _40  and  _41
REMARK   15  A    between atoms: _46  and  _48
REMARK   16  A    between atoms: _48  and  _49
REMARK   17  A    between atoms: _48  and  _51
REMARK   18  A    between atoms: _51  and  _52
REMARK   19  A    between atoms: _57  and  _59
REMARK   20  A    between atoms: _59  and  _60
REMARK   21  A    between atoms: _63  and  _65
REMARK   22  A    between atoms: _65  and  _66
REMARK   23  A    between atoms: _65  and  _68
REMARK   24  A    between atoms: _68  and  _69
REMARK   25  A    between atoms: _74  and  _76
REMARK   26  A    between atoms: _76  and  _77
REMARK   27  A    between atoms: _76  and  _79
REMARK   28  A    between atoms: _79  and  _80
REMARK   29  A    between atoms: _83  and  _85
REMARK   30  A    between atoms: _85  and  _86
REMARK   31  A    between atoms: _85  and  _88
REMARK   32  A    between atoms: _88  and  _89
REMARK   33  A    between atoms: _89  and  _90
REMARK   34  A    between atoms: _95  and  _97
REMARK   35  A    between atoms: _97  and  _98
REMARK   36  A    between atoms: _97  and  _100
REMARK   37  A    between atoms: _100  and  _101
REMARK   38  A    between atoms: _107  and  _109
REMARK   39  A    between atoms: _120  and  _123
REMARK   40  A    between atoms: _123  and  _124
REMARK   41  A    between atoms: _132  and  _133
REMARK   42  A    between atoms: _141  and  _143
REMARK   43  A    between atoms: _143  and  _144
REMARK   44  A    between atoms: _143  and  _146
REMARK   45  A    between atoms: _146  and  _147
REMARK   46  A    between atoms: _147  and  _148
REMARK   47  A    between atoms: _151  and  _153
REMARK   48  A    between atoms: _153  and  _154
REMARK   49  A    between atoms: _153  and  _156
REMARK   50  A    between atoms: _156  and  _157
REMARK   51  A    between atoms: _162  and  _164
REMARK   52  A    between atoms: _164  and  _165
REMARK   53  A    between atoms: _164  and  _167
REMARK   54  A    between atoms: _167  and  _168
REMARK   55  A    between atoms: _168  and  _169
REMARK   56  A    between atoms: _172  and  _174
REMARK   57  A    between atoms: _174  and  _175
REMARK   58  A    between atoms: _174  and  _177
REMARK   59  A    between atoms: _177  and  _178
REMARK   60  A    between atoms: _181  and  _183
REMARK   61  A    between atoms: _183  and  _184
REMARK   62  A    between atoms: _183  and  _186
REMARK   63  A    between atoms: _186  and  _187
REMARK   64  A    between atoms: _188  and  ZN_403
REMARK   65  A    between atoms: _192  and  _194
REMARK   66  A    between atoms: _194  and  _195
REMARK   67  A    between atoms: _194  and  _197
REMARK   68  A    between atoms: _197  and  _198
REMARK   69  A    between atoms: _201  and  _203
REMARK   70  A    between atoms: _203  and  _204
REMARK   71  A    between atoms: _203  and  _206
REMARK   72  A    between atoms: _209  and  _211
REMARK   73  A    between atoms: _211  and  _212
REMARK   74  A    between atoms: _211  and  _214
REMARK   75  A    between atoms: _214  and  _215
REMARK   76  A    between atoms: _220  and  _222
REMARK   77  A    between atoms: _222  and  _223
REMARK   78  A    between atoms: _222  and  _225
REMARK   79  A    between atoms: _225  and  _226
REMARK   80  A    between atoms: _232  and  _234
REMARK   81  A    between atoms: _234  and  _235
REMARK   82  A    between atoms: _234  and  _237
REMARK   83  A    between atoms: _240  and  _242
REMARK   84  A    between atoms: _242  and  _243
REMARK   85  A    between atoms: _242  and  _245
REMARK   86  A    between atoms: _245  and  _246
REMARK   87  A    between atoms: _249  and  _251
REMARK   88  A    between atoms: _251  and  _252
REMARK   89  A    between atoms: _255  and  _257
REMARK   90  A    between atoms: _257  and  _258
REMARK   91  A    between atoms: _257  and  _260
REMARK   92  A    between atoms: _263  and  _265
REMARK   93  A    between atoms: _265  and  _266
REMARK   94  A    between atoms: _265  and  _268
REMARK   95  A    between atoms: _268  and  _269
REMARK   96  A    between atoms: _272  and  _274
REMARK   97  A    between atoms: _274  and  _275
REMARK   98  A    between atoms: _277  and  _279
REMARK   99  A    between atoms: _279  and  _280
REMARK  100  A    between atoms: _279  and  _282
REMARK  101  A    between atoms: _282  and  _283
REMARK  102  A    between atoms: _285  and  _287
REMARK  103  A    between atoms: _287  and  _288
REMARK  104  A    between atoms: _287  and  _290
REMARK  105  A    between atoms: _290  and  _291
REMARK  106  A    between atoms: _294  and  _296
REMARK  107  A    between atoms: _296  and  _297
REMARK  108  A    between atoms: _296  and  _299
REMARK  109  A    between atoms: _299  and  _300
REMARK  110  A    between atoms: _303  and  _305
REMARK  111  A    between atoms: _305  and  _306
REMARK  112  A    between atoms: _305  and  _308
REMARK  113  A    between atoms: _308  and  _309
REMARK  114  A    between atoms: _313  and  _314
REMARK  115  A    between atoms: _320  and  _321
REMARK  116  A    between atoms: _326  and  _328
REMARK  117  A    between atoms: _328  and  _329
REMARK  118  A    between atoms: _328  and  _331
REMARK  119  A    between atoms: _331  and  _332
REMARK  120  A    between atoms: _335  and  _337
REMARK  121  A    between atoms: _337  and  _338
REMARK  122  A    between atoms: _337  and  _340
REMARK  123  A    between atoms: _340  and  _341
REMARK  124  A    between atoms: _344  and  _346
REMARK  125  A    between atoms: _346  and  _347
REMARK  126  A    between atoms: _346  and  _349
REMARK  127  A    between atoms: _351  and  _353
REMARK  128  A    between atoms: _353  and  _354
REMARK  129  A    between atoms: _353  and  _356
REMARK  130  A    between atoms: _359  and  _361
REMARK  131  A    between atoms: _361  and  _362
REMARK  132  A    between atoms: _361  and  _364
REMARK  133  A    between atoms: _364  and  _365
REMARK  134  A    between atoms: _375  and  _377
REMARK  135  A    between atoms: _377  and  _378
REMARK  136  A    between atoms: _377  and  _380
REMARK  137  A    between atoms: _380  and  _381
REMARK  138  A    between atoms: _386  and  _388
REMARK  139  A    between atoms: _388  and  _389
REMARK  140  A    between atoms: _388  and  _391
REMARK  141  A    between atoms: _391  and  _392
REMARK  142  A    between atoms: _392  and  _393
REMARK  143  A    between atoms: _393  and  _394
REMARK                            x       y       z     vdW  Elec       q    Type
REMARK                         _______ _______ _______ _____ _____    ______ ____
ROOT
ATOM      1  CA  VAL A   1      17.157  11.643  19.925  0.00  0.00    +0.133 C 
ENDROOT
BRANCH   1   2
ATOM      2  CB  VAL A   1      17.768  10.885  18.706  0.00  0.00    +0.023 C 
ATOM      3  CG2 VAL A   1      18.684  11.753  17.846  0.00  0.00    +0.002 C 
ATOM      4  CG1 VAL A   1      16.678  10.268  17.772  0.00  0.00    +0.002 C 
ENDBRANCH   1   2
BRANCH   1   5
ATOM      5  N   VAL A   1      16.271  12.786  19.497  0.00  0.00    -0.239 NA
ATOM      6  H   VAL A   1      16.297  13.168  18.530  0.00  0.00    +0.142 HD
ENDBRANCH   1   5
BRANCH   1   7
ATOM      7  C   VAL A   1      18.299  12.043  20.875  0.00  0.00    +0.224 C 
ATOM      8  O   VAL A   1      18.997  11.144  21.374  0.00  0.00    -0.287 OA
ENDBRANCH   1   7
TORSDOF 3
REMARK  Name = ../refined-set-2016/3s76/3s76_pocket.pdb
REMARK  143 active torsions:
REMARK  status: ('A' for Active; 'I' for Inactive)
REMARK    1  A    between atoms: _1  and  _3
REMARK    2  A    between atoms: _3  and  _4
REMARK    3  A    between atoms: _3  and  _6
REMARK    4  A    between atoms: _6  and  _7
REMARK    5  A    between atoms: _17  and  _19
REMARK    6  A    between atoms: _19  and  _20
REMARK    7  A    between atoms: _19  and  _22
REMARK    8  A    between atoms: _22  and  _23
REMARK    9  A    between atoms: _28  and  _29
REMARK   10  A    between atoms: _31  and  _33
REMARK   11  A    between atoms: _33  and  _34
REMARK   12  A    between atoms: _33  and  _36
REMARK   13  A    between atoms: _36  and  _37
REMARK   14  A    between atoms: _40  and  _41
REMARK   15  A    between atoms: _46  and  _48
REMARK   16  A    between atoms: _48  and  _49
REMARK   17  A    between atoms: _48  and  _51
REMARK   18  A    between atoms: _51  and  _52
REMARK   19  A    between atoms: _57  and  _59
REMARK   20  A    between atoms: _59  and  _60
REMARK   21  A    between atoms: _63  and  _65
REMARK   22  A    between atoms: _65  and  _66
REMARK   23  A    between atoms: _65  and  _68
REMARK   24  A    between atoms: _68  and  _69
REMARK   25  A    between atoms: _74  and  _76
REMARK   26  A    between atoms: _76  and  _77
REMARK   27  A    between atoms: _76  and  _79
REMARK   28  A    between atoms: _79  and  _80
REMARK   29  A    between atoms: _83  and  _85
REMARK   30  A    between atoms: _85  and  _86
REMARK   31  A    between atoms: _85  and  _88
REMARK   32  A    between atoms: _88  and  _89
REMARK   33  A    between atoms: _89  and  _90
REMARK   34  A    between atoms: _95  and  _97
REMARK   35  A    between atoms: _97  and  _98
REMARK   36  A    between atoms: _97  and  _100
REMARK   37  A    between atoms: _100  and  _101
REMARK   38  A    between atoms: _107  and  _109
REMARK   39  A    between atoms: _120  and  _123
REMARK   40  A    between atoms: _123  and  _124
REMARK   41  A    between atoms: _132  and  _133
REMARK   42  A    between atoms: _141  and  _143
REMARK   43  A    between atoms: _143  and  _144
REMARK   44  A    between atoms: _143  and  _146
REMARK   45  A    between atoms: _146  and  _147
REMARK   46  A    between atoms: _147  and  _148
REMARK   47  A    between atoms: _151  and  _153
REMARK   48  A    between atoms: _153  and  _154
REMARK   49  A    between atoms: _153  and  _156
REMARK   50  A    between atoms: _156  and  _157
REMARK   51  A    between atoms: _162  and  _164
REMARK   52  A    between atoms: _164  and  _165
REMARK   53  A    between atoms: _164  and  _167
REMARK   54  A    between atoms: _167  and  _168
REMARK   55  A    between atoms: _168  and  _169
REMARK   56  A    between atoms: _172  and  _174
REMARK   57  A    between atoms: _174  and  _175
REMARK   58  A    between atoms: _174  and  _177
REMARK   59  A    between atoms: _177  and  _178
REMARK   60  A    between atoms: _181  and  _183
REMARK   61  A    between atoms: _183  and  _184
REMARK   62  A    between atoms: _183  and  _186
REMARK   63  A    between atoms: _186  and  _187
REMARK   64  A    between atoms: _188  and  ZN_403
REMARK   65  A    between atoms: _192  and  _194
REMARK   66  A    between atoms: _194  and  _195
REMARK   67  A    between atoms: _194  and  _197
REMARK   68  A    between atoms: _197  and  _198
REMARK   69  A    between atoms: _201  and  _203
REMARK   70  A    between atoms: _203  and  _204
REMARK   71  A    between atoms: _203  and  _206
REMARK   72  A    between atoms: _209  and  _211
REMARK   73  A    between atoms: _211  and  _212
REMARK   74  A    between atoms: _211  and  _214
REMARK   75  A    between atoms: _214  and  _215
REMARK   76  A    between atoms: _220  and  _222
REMARK   77  A    between atoms: _222  and  _223
REMARK   78  A    between atoms: _222  and  _225
REMARK   79  A    between atoms: _225  and  _226
REMARK   80  A    between atoms: _232  and  _234
REMARK   81  A    between atoms: _234  and  _235
REMARK   82  A    between atoms: _234  and  _237
REMARK   83  A    between atoms: _240  and  _242
REMARK   84  A    between atoms: _242  and  _243
REMARK   85  A    between atoms: _242  and  _245
REMARK   86  A    between atoms: _245  and  _246
REMARK   87  A    between atoms: _249  and  _251
REMARK   88  A    between atoms: _251  and  _252
REMARK   89  A    between atoms: _255  and  _257
REMARK   90  A    between atoms: _257  and  _258
REMARK   91  A    between atoms: _257  and  _260
REMARK   92  A    between atoms: _263  and  _265
REMARK   93  A    between atoms: _265  and  _266
REMARK   94  A    between atoms: _265  and  _268
REMARK   95  A    between atoms: _268  and  _269
REMARK   96  A    between atoms: _272  and  _274
REMARK   97  A    between atoms: _274  and  _275
REMARK   98  A    between atoms: _277  and  _279
REMARK   99  A    between atoms: _279  and  _280
REMARK  100  A    between atoms: _279  and  _282
REMARK  101  A    between atoms: _282  and  _283
REMARK  102  A    between atoms: _285  and  _287
REMARK  103  A    between atoms: _287  and  _288
REMARK  104  A    between atoms: _287  and  _290
REMARK  105  A    between atoms: _290  and  _291
REMARK  106  A    between atoms: _294  and  _296
REMARK  107  A    between atoms: _296  and  _297
REMARK  108  A    between atoms: _296  and  _299
REMARK  109  A    between atoms: _299  and  _300
REMARK  110  A    between atoms: _303  and  _305
REMARK  111  A    between atoms: _305  and  _306
REMARK  112  A    between atoms: _305  and  _308
REMARK  113  A    between atoms: _308  and  _309
REMARK  114  A    between atoms: _313  and  _314
REMARK  115  A    between atoms: _320  and  _321
REMARK  116  A    between atoms: _326  and  _328
REMARK  117  A    between atoms: _328  and  _329
REMARK  118  A    between atoms: _328  and  _331
REMARK  119  A    between atoms: _331  and  _332
REMARK  120  A    between atoms: _335  and  _337
REMARK  121  A    between atoms: _337  and  _338
REMARK  122  A    between atoms: _337  and  _340
REMARK  123  A    between atoms: _340  and  _341
REMARK  124  A    between atoms: _344  and  _346
REMARK  125  A    between atoms: _346  and  _347
REMARK  126  A    between atoms: _346  and  _349
REMARK  127  A    between atoms: _351  and  _353
REMARK  128  A    between atoms: _353  and  _354
REMARK  129  A    between atoms: _353  and  _356
REMARK  130  A    between atoms: _359  and  _361
REMARK  131  A    between atoms: _361  and  _362
REMARK  132  A    between atoms: _361  and  _364
REMARK  133  A    between atoms: _364  and  _365
REMARK  134  A    between atoms: _375  and  _377
REMARK  135  A    between atoms: _377  and  _378
REMARK  136  A    between atoms: _377  and  _380
REMARK  137  A    between atoms: _380  and  _381
REMARK  138  A    between atoms: _386  and  _388
REMARK  139  A    between atoms: _388  and  _389
REMARK  140  A    between atoms: _388  and  _391
REMARK  141  A    between atoms: _391  and  _392
REMARK  142  A    between atoms: _392  and  _393
REMARK  143  A    between atoms: _393  and  _394
REMARK                            x       y       z     vdW  Elec       q    Type
REMARK                         _______ _______ _______ _____ _____    ______ ____
ROOT
ATOM      1  CA  VAL A   3       9.110   2.821  20.143  0.00  0.00    +0.149 C 
ENDROOT
BRANCH   1   3
ATOM      2  C   ALA A   2       8.670   5.122  20.821  0.00  0.00    +0.241 C 
ATOM      3  N   VAL A   3       9.122   3.907  21.129  0.00  0.00    -0.297 N 
ATOM      4  H   VAL A   3       9.490   3.726  22.085  0.00  0.00    +0.150 HD
ATOM      5  O   ALA A   2       8.256   5.466  19.711  0.00  0.00    -0.273 OA
BRANCH   2   6
ATOM      6  CA  ALA A   2       8.721   6.124  21.944  0.00  0.00    +0.149 C 
ATOM      7  CB  ALA A   2       7.315   6.573  22.376  0.00  0.00    +0.031 C 
BRANCH   6  10
ATOM      8  C   LEU A   1      10.543   7.780  22.107  0.00  0.00    +0.238 C 
ATOM      9  O   LEU A   1      10.796   7.474  23.282  0.00  0.00    -0.274 OA
ATOM     10  N   ALA A   2       9.526   7.261  21.395  0.00  0.00    -0.297 N 
ATOM     11  H   ALA A   2       9.298   7.652  20.459  0.00  0.00    +0.150 HD
BRANCH   8  12
ATOM     12  CA  LEU A   1      11.411   8.726  21.347  0.00  0.00    +0.145 C 
BRANCH  12  13
ATOM     13  N   LEU A   1      12.100   9.659  22.244  0.00  0.00    -0.238 NA
ATOM     14  H   LEU A   1      12.670   9.299  23.036  0.00  0.00    +0.142 HD
ENDBRANCH  12  13
BRANCH  12  15
ATOM     15  CB  LEU A   1      12.459   7.851  20.594  0.00  0.00    +0.026 C 
BRANCH  15  16
ATOM     16  CG  LEU A   1      13.403   8.509  19.586  0.00  0.00    +0.002 C 
ATOM     17  CD2 LEU A   1      14.095   7.483  18.720  0.00  0.00    +0.000 C 
ATOM     18  CD1 LEU A   1      12.945   9.593  18.674  0.00  0.00    +0.000 C 
ENDBRANCH  15  16
ENDBRANCH  12  15
ENDBRANCH   8  12
ENDBRANCH   6  10
ENDBRANCH   2   6
ENDBRANCH   1   3
BRANCH   1  19
ATOM     19  C   VAL A   3       8.122   1.743  20.599  0.00  0.00    +0.241 C 
ATOM     20  O   VAL A   3       8.220   1.274  21.719  0.00  0.00    -0.273 OA
ATOM     21  N   LEU A   4       7.106   1.471  19.763  0.00  0.00    -0.297 N 
ATOM     22  H   LEU A   4       7.009   2.046  18.902  0.00  0.00    +0.150 HD
BRANCH  21  23
ATOM     23  CA  LEU A   4       6.152   0.434  19.995  0.00  0.00    +0.149 C 
BRANCH  23  24
ATOM     24  C   LEU A   4       6.691  -0.836  19.361  0.00  0.00    +0.241 C 
ATOM     25  N   GLY A   5       6.948  -1.863  20.194  0.00  0.00    -0.296 N 
ATOM     26  H   GLY A   5       6.700  -1.773  21.200  0.00  0.00    +0.150 HD
ATOM     27  O   LEU A   4       6.936  -0.864  18.127  0.00  0.00    -0.273 OA
BRANCH  25  28
ATOM     28  CA  GLY A   5       7.560  -3.089  19.725  0.00  0.00    +0.163 C 
BRANCH  28  29
ATOM     29  C   GLY A   5       6.476  -4.181  19.686  0.00  0.00    +0.229 C 
ATOM     30  O   GLY A   5       5.725  -4.332  20.656  0.00  0.00    -0.286 OA
ENDBRANCH  28  29
ENDBRANCH  25  28
ENDBRANCH  23  24
BRANCH  23  31
ATOM     31  CB  LEU A   4       4.779   0.893  19.404  0.00  0.00    +0.029 C 
BRANCH  31  32
ATOM     32  CG  LEU A   4       3.641  -0.094  19.563  0.00  0.00    +0.002 C 
ATOM     33  CD2 LEU A   4       3.408  -0.366  21.059  0.00  0.00    +0.000 C 
ATOM     34  CD1 LEU A   4       2.399   0.586  18.894  0.00  0.00    +0.000 C 
ENDBRANCH  31  32
ENDBRANCH  23  31
ENDBRANCH  21  23
ENDBRANCH   1  19
BRANCH   1  35
ATOM     35  CB  VAL A   3      10.512   2.219  19.823  0.00  0.00    +0.027 C 
ATOM     36  CG2 VAL A   3      11.479   3.329  19.310  0.00  0.00    +0.002 C 
ATOM     37  CG1 VAL A   3      10.353   1.211  18.610  0.00  0.00    +0.002 C 
ENDBRANCH   1  35
TORSDOF 15
REMARK  Name = ../refined-set-2016/3s76/3s76_pocket.pdb
REMARK  143 active torsions:
REMARK  status: ('A' for Active; 'I' for Inactive)
REMARK    1  A    between atoms: _1  and  _3
REMARK    2  A    between atoms: _3  and  _4
REMARK    3  A    between atoms: _3  and  _6
REMARK    4  A    between atoms: _6  and  _7
REMARK    5  A    between atoms: _17  and  _19
REMARK    6  A    between atoms: _19  and  _20
REMARK    7  A    between atoms: _19  and  _22
REMARK    8  A    between atoms: _22  and  _23
REMARK    9  A    between atoms: _28  and  _29
REMARK   10  A    between atoms: _31  and  _33
REMARK   11  A    between atoms: _33  and  _34
REMARK   12  A    between atoms: _33  and  _36
REMARK   13  A    between atoms: _36  and  _37
REMARK   14  A    between atoms: _40  and  _41
REMARK   15  A    between atoms: _46  and  _48
REMARK   16  A    between atoms: _48  and  _49
REMARK   17  A    between atoms: _48  and  _51
REMARK   18  A    between atoms: _51  and  _52
REMARK   19  A    between atoms: _57  and  _59
REMARK   20  A    between atoms: _59  and  _60
REMARK   21  A    between atoms: _63  and  _65
REMARK   22  A    between atoms: _65  and  _66
REMARK   23  A    between atoms: _65  and  _68
REMARK   24  A    between atoms: _68  and  _69
REMARK   25  A    between atoms: _74  and  _76
REMARK   26  A    between atoms: _76  and  _77
REMARK   27  A    between atoms: _76  and  _79
REMARK   28  A    between atoms: _79  and  _80
REMARK   29  A    between atoms: _83  and  _85
REMARK   30  A    between atoms: _85  and  _86
REMARK   31  A    between atoms: _85  and  _88
REMARK   32  A    between atoms: _88  and  _89
REMARK   33  A    between atoms: _89  and  _90
REMARK   34  A    between atoms: _95  and  _97
REMARK   35  A    between atoms: _97  and  _98
REMARK   36  A    between atoms: _97  and  _100
REMARK   37  A    between atoms: _100  and  _101
REMARK   38  A    between atoms: _107  and  _109
REMARK   39  A    between atoms: _120  and  _123
REMARK   40  A    between atoms: _123  and  _124
REMARK   41  A    between atoms: _132  and  _133
REMARK   42  A    between atoms: _141  and  _143
REMARK   43  A    between atoms: _143  and  _144
REMARK   44  A    between atoms: _143  and  _146
REMARK   45  A    between atoms: _146  and  _147
REMARK   46  A    between atoms: _147  and  _148
REMARK   47  A    between atoms: _151  and  _153
REMARK   48  A    between atoms: _153  and  _154
REMARK   49  A    between atoms: _153  and  _156
REMARK   50  A    between atoms: _156  and  _157
REMARK   51  A    between atoms: _162  and  _164
REMARK   52  A    between atoms: _164  and  _165
REMARK   53  A    between atoms: _164  and  _167
REMARK   54  A    between atoms: _167  and  _168
REMARK   55  A    between atoms: _168  and  _169
REMARK   56  A    between atoms: _172  and  _174
REMARK   57  A    between atoms: _174  and  _175
REMARK   58  A    between atoms: _174  and  _177
REMARK   59  A    between atoms: _177  and  _178
REMARK   60  A    between atoms: _181  and  _183
REMARK   61  A    between atoms: _183  and  _184
REMARK   62  A    between atoms: _183  and  _186
REMARK   63  A    between atoms: _186  and  _187
REMARK   64  A    between atoms: _188  and  ZN_403
REMARK   65  A    between atoms: _192  and  _194
REMARK   66  A    between atoms: _194  and  _195
REMARK   67  A    between atoms: _194  and  _197
REMARK   68  A    between atoms: _197  and  _198
REMARK   69  A    between atoms: _201  and  _203
REMARK   70  A    between atoms: _203  and  _204
REMARK   71  A    between atoms: _203  and  _206
REMARK   72  A    between atoms: _209  and  _211
REMARK   73  A    between atoms: _211  and  _212
REMARK   74  A    between atoms: _211  and  _214
REMARK   75  A    between atoms: _214  and  _215
REMARK   76  A    between atoms: _220  and  _222
REMARK   77  A    between atoms: _222  and  _223
REMARK   78  A    between atoms: _222  and  _225
REMARK   79  A    between atoms: _225  and  _226
REMARK   80  A    between atoms: _232  and  _234
REMARK   81  A    between atoms: _234  and  _235
REMARK   82  A    between atoms: _234  and  _237
REMARK   83  A    between atoms: _240  and  _242
REMARK   84  A    between atoms: _242  and  _243
REMARK   85  A    between atoms: _242  and  _245
REMARK   86  A    between atoms: _245  and  _246
REMARK   87  A    between atoms: _249  and  _251
REMARK   88  A    between atoms: _251  and  _252
REMARK   89  A    between atoms: _255  and  _257
REMARK   90  A    between atoms: _257  and  _258
REMARK   91  A    between atoms: _257  and  _260
REMARK   92  A    between atoms: _263  and  _265
REMARK   93  A    between atoms: _265  and  _266
REMARK   94  A    between atoms: _265  and  _268
REMARK   95  A    between atoms: _268  and  _269
REMARK   96  A    between atoms: _272  and  _274
REMARK   97  A    between atoms: _274  and  _275
REMARK   98  A    between atoms: _277  and  _279
REMARK   99  A    between atoms: _279  and  _280
REMARK  100  A    between atoms: _279  and  _282
REMARK  101  A    between atoms: _282  and  _283
REMARK  102  A    between atoms: _285  and  _287
REMARK  103  A    between atoms: _287  and  _288
REMARK  104  A    between atoms: _287  and  _290
REMARK  105  A    between atoms: _290  and  _291
REMARK  106  A    between atoms: _294  and  _296
REMARK  107  A    between atoms: _296  and  _297
REMARK  108  A    between atoms: _296  and  _299
REMARK  109  A    between atoms: _299  and  _300
REMARK  110  A    between atoms: _303  and  _305
REMARK  111  A    between atoms: _305  and  _306
REMARK  112  A    between atoms: _305  and  _308
REMARK  113  A    between atoms: _308  and  _309
REMARK  114  A    between atoms: _313  and  _314
REMARK  115  A    between atoms: _320  and  _321
REMARK  116  A    between atoms: _326  and  _328
REMARK  117  A    between atoms: _328  and  _329
REMARK  118  A    between atoms: _328  and  _331
REMARK  119  A    between atoms: _331  and  _332
REMARK  120  A    between atoms: _335  and  _337
REMARK  121  A    between atoms: _337  and  _338
REMARK  122  A    between atoms: _337  and  _340
REMARK  123  A    between atoms: _340  and  _341
REMARK  124  A    between atoms: _344  and  _346
REMARK  125  A    between atoms: _346  and  _347
REMARK  126  A    between atoms: _346  and  _349
REMARK  127  A    between atoms: _351  and  _353
REMARK  128  A    between atoms: _353  and  _354
REMARK  129  A    between atoms: _353  and  _356
REMARK  130  A    between atoms: _359  and  _361
REMARK  131  A    between atoms: _361  and  _362
REMARK  132  A    between atoms: _361  and  _364
REMARK  133  A    between atoms: _364  and  _365
REMARK  134  A    between atoms: _375  and  _377
REMARK  135  A    between atoms: _377  and  _378
REMARK  136  A    between atoms: _377  and  _380
REMARK  137  A    between atoms: _380  and  _381
REMARK  138  A    between atoms: _386  and  _388
REMARK  139  A    between atoms: _388  and  _389
REMARK  140  A    between atoms: _388  and  _391
REMARK  141  A    between atoms: _391  and  _392
REMARK  142  A    between atoms: _392  and  _393
REMARK  143  A    between atoms: _393  and  _394
REMARK                            x       y       z     vdW  Elec       q    Type
REMARK                         _______ _______ _______ _____ _____    ______ ____
ROOT
ATOM      1  C   THR A   4      21.998   1.455  16.477  0.00  0.00    +0.246 C 
ATOM      2  O   THR A   4      21.534   2.442  17.060  0.00  0.00    -0.273 OA
ATOM      3  N   PRO A   5      23.281   1.391  16.058  0.00  0.00    -0.272 N 
ATOM      4  CA  PRO A   5      24.076   2.612  16.160  0.00  0.00    +0.152 C 
ATOM      5  CB  PRO A   5      25.300   2.251  15.284  0.00  0.00    +0.031 C 
ATOM      6  CG  PRO A   5      25.439   0.728  15.506  0.00  0.00    +0.024 C 
ATOM      7  CD  PRO A   5      24.008   0.240  15.468  0.00  0.00    +0.094 C 
ENDROOT
BRANCH   4   8
ATOM      8  C   PRO A   5      23.337   3.816  15.571  0.00  0.00    +0.244 C 
ATOM      9  N   PRO A   6      23.354   4.961  16.269  0.00  0.00    -0.272 N 
ATOM     10  CA  PRO A   6      24.308   5.296  17.337  0.00  0.00    +0.152 C 
ATOM     11  CB  PRO A   6      24.341   6.840  17.207  0.00  0.00    +0.031 C 
ATOM     12  CG  PRO A   6      22.908   7.224  16.792  0.00  0.00    +0.024 C 
ATOM     13  CD  PRO A   6      22.636   6.163  15.746  0.00  0.00    +0.094 C 
ATOM     14  O   PRO A   5      22.745   3.739  14.474  0.00  0.00    -0.273 OA
BRANCH  10  15
ATOM     15  C   PRO A   6      23.891   4.892  18.769  0.00  0.00    +0.241 C 
ATOM     16  O   PRO A   6      24.521   5.398  19.752  0.00  0.00    -0.273 OA
ATOM     17  N   LEU A   7      22.797   4.090  18.891  0.00  0.00    -0.297 N 
ATOM     18  H   LEU A   7      22.162   3.923  18.084  0.00  0.00    +0.150 HD
BRANCH  17  19
ATOM     19  CA  LEU A   7      22.539   3.464  20.207  0.00  0.00    +0.149 C 
BRANCH  19  20
ATOM     20  C   LEU A   7      22.132   4.478  21.308  0.00  0.00    +0.241 C 
ATOM     21  O   LEU A   7      22.263   4.219  22.507  0.00  0.00    -0.273 OA
ATOM     22  N   LEU A   8      21.543   5.601  20.851  0.00  0.00    -0.298 N 
ATOM     23  H   LEU A   8      21.251   5.683  19.856  0.00  0.00    +0.150 HD
BRANCH  22  24
ATOM     24  CA  LEU A   8      21.323   6.716  21.804  0.00  0.00    +0.137 C 
BRANCH  24  25
ATOM     25  C   LEU A   8      20.271   6.316  22.836  0.00  0.00    +0.227 C 
ATOM     26  O   LEU A   8      19.266   5.604  22.520  0.00  0.00    -0.286 OA
ENDBRANCH  24  25
BRANCH  24  27
ATOM     27  CB  LEU A   8      20.826   7.923  20.973  0.00  0.00    +0.028 C 
BRANCH  27  28
ATOM     28  CG  LEU A   8      21.928   8.445  20.035  0.00  0.00    +0.002 C 
ATOM     29  CD2 LEU A   8      23.050   9.121  20.851  0.00  0.00    +0.000 C 
ATOM     30  CD1 LEU A   8      21.269   9.547  19.141  0.00  0.00    +0.000 C 
ENDBRANCH  27  28
ENDBRANCH  24  27
ENDBRANCH  22  24
ENDBRANCH  19  20
BRANCH  19  31
ATOM     31  CB  LEU A   7      23.681   2.527  20.711  0.00  0.00    +0.029 C 
BRANCH  31  32
ATOM     32  CG  LEU A   7      23.992   1.428  19.691  0.00  0.00    +0.002 C 
ATOM     33  CD2 LEU A   7      25.305   0.820  20.131  0.00  0.00    +0.000 C 
ATOM     34  CD1 LEU A   7      22.871   0.341  19.602  0.00  0.00    +0.000 C 
ENDBRANCH  31  32
ENDBRANCH  19  31
ENDBRANCH  17  19
ENDBRANCH  10  15
ENDBRANCH   4   8
BRANCH   1  35
ATOM     35  CA  THR A   4      21.109   0.247  16.192  0.00  0.00    +0.176 C 
BRANCH  35  38
ATOM     36  C   THR A   3      19.982  -0.954  18.035  0.00  0.00    +0.243 C 
ATOM     37  O   THR A   3      20.628  -1.995  17.883  0.00  0.00    -0.273 OA
ATOM     38  N   THR A   4      20.104   0.133  17.264  0.00  0.00    -0.295 N 
ATOM     39  H   THR A   4      19.461   0.933  17.429  0.00  0.00    +0.150 HD
BRANCH  36  40
ATOM     40  CA  THR A   3      18.994  -0.856  19.161  0.00  0.00    +0.176 C 
BRANCH  40  43
ATOM     41  C   LEU A   2      18.729   1.428  19.973  0.00  0.00    +0.241 C 
ATOM     42  O   LEU A   2      19.784   1.293  20.679  0.00  0.00    -0.273 OA
ATOM     43  N   THR A   3      18.275   0.461  19.187  0.00  0.00    -0.295 N 
ATOM     44  H   THR A   3      17.432   0.613  18.597  0.00  0.00    +0.150 HD
BRANCH  41  45
ATOM     45  CA  LEU A   2      17.929   2.740  19.940  0.00  0.00    +0.149 C 
BRANCH  45  48
ATOM     46  C   SER A   1      17.409   2.624  22.313  0.00  0.00    +0.241 C 
ATOM     47  O   SER A   1      16.702   1.626  22.140  0.00  0.00    -0.274 OA
ATOM     48  N   LEU A   2      18.011   3.278  21.306  0.00  0.00    -0.297 N 
ATOM     49  H   LEU A   2      18.532   4.159  21.491  0.00  0.00    +0.150 HD
BRANCH  46  50
ATOM     50  CA  SER A   1      17.856   3.043  23.716  0.00  0.00    +0.174 C 
BRANCH  50  51
ATOM     51  N   SER A   1      17.064   2.387  24.781  0.00  0.00    -0.236 NA
ATOM     52  H   SER A   1      16.815   1.381  24.690  0.00  0.00    +0.142 HD
ENDBRANCH  50  51
BRANCH  50  53
ATOM     53  CB  SER A   1      19.386   2.650  23.842  0.00  0.00    +0.163 C 
BRANCH  53  54
ATOM     54  OG  SER A   1      19.616   1.292  23.415  0.00  0.00    -0.380 OA
ATOM     55  H   SER A   1      19.342   1.194  22.469  0.00  0.00    +0.211 HD
ENDBRANCH  53  54
ENDBRANCH  50  53
ENDBRANCH  46  50
ENDBRANCH  45  48
BRANCH  45  56
ATOM     56  CB  LEU A   2      18.663   3.692  18.991  0.00  0.00    +0.029 C 
BRANCH  56  57
ATOM     57  CG  LEU A   2      17.928   5.029  18.879  0.00  0.00    +0.002 C 
ATOM     58  CD2 LEU A   2      16.550   4.817  18.140  0.00  0.00    +0.000 C 
ATOM     59  CD1 LEU A   2      18.791   5.989  18.003  0.00  0.00    +0.000 C 
ENDBRANCH  56  57
ENDBRANCH  45  56
ENDBRANCH  41  45
ENDBRANCH  40  43
BRANCH  40  60
ATOM     60  CB  THR A   3      18.032  -2.047  19.009  0.00  0.00    +0.137 C 
ATOM     61  CG2 THR A   3      16.938  -2.033  20.169  0.00  0.00    +0.034 C 
BRANCH  60  62
ATOM     62  OG1 THR A   3      17.408  -2.003  17.729  0.00  0.00    -0.382 OA
ATOM     63  HG1 THR A   3      16.791  -2.772  17.638  0.00  0.00    +0.210 HD
ENDBRANCH  60  62
ENDBRANCH  40  60
ENDBRANCH  36  40
ENDBRANCH  35  38
BRANCH  35  64
ATOM     64  CB  THR A   4      20.413   0.480  14.841  0.00  0.00    +0.137 C 
ATOM     65  CG2 THR A   4      19.668  -0.798  14.461  0.00  0.00    +0.034 C 
BRANCH  64  66
ATOM     66  OG1 THR A   4      19.443   1.560  14.953  0.00  0.00    -0.382 OA
ATOM     67  HG1 THR A   4      19.906   2.391  15.226  0.00  0.00    +0.210 HD
ENDBRANCH  64  66
ENDBRANCH  35  64
ENDBRANCH   1  35
TORSDOF 26
REMARK  Name = ../refined-set-2016/3s76/3s76_pocket.pdb
REMARK  143 active torsions:
REMARK  status: ('A' for Active; 'I' for Inactive)
REMARK    1  A    between atoms: _1  and  _3
REMARK    2  A    between atoms: _3  and  _4
REMARK    3  A    between atoms: _3  and  _6
REMARK    4  A    between atoms: _6  and  _7
REMARK    5  A    between atoms: _17  and  _19
REMARK    6  A    between atoms: _19  and  _20
REMARK    7  A    between atoms: _19  and  _22
REMARK    8  A    between atoms: _22  and  _23
REMARK    9  A    between atoms: _28  and  _29
REMARK   10  A    between atoms: _31  and  _33
REMARK   11  A    between atoms: _33  and  _34
REMARK   12  A    between atoms: _33  and  _36
REMARK   13  A    between atoms: _36  and  _37
REMARK   14  A    between atoms: _40  and  _41
REMARK   15  A    between atoms: _46  and  _48
REMARK   16  A    between atoms: _48  and  _49
REMARK   17  A    between atoms: _48  and  _51
REMARK   18  A    between atoms: _51  and  _52
REMARK   19  A    between atoms: _57  and  _59
REMARK   20  A    between atoms: _59  and  _60
REMARK   21  A    between atoms: _63  and  _65
REMARK   22  A    between atoms: _65  and  _66
REMARK   23  A    between atoms: _65  and  _68
REMARK   24  A    between atoms: _68  and  _69
REMARK   25  A    between atoms: _74  and  _76
REMARK   26  A    between atoms: _76  and  _77
REMARK   27  A    between atoms: _76  and  _79
REMARK   28  A    between atoms: _79  and  _80
REMARK   29  A    between atoms: _83  and  _85
REMARK   30  A    between atoms: _85  and  _86
REMARK   31  A    between atoms: _85  and  _88
REMARK   32  A    between atoms: _88  and  _89
REMARK   33  A    between atoms: _89  and  _90
REMARK   34  A    between atoms: _95  and  _97
REMARK   35  A    between atoms: _97  and  _98
REMARK   36  A    between atoms: _97  and  _100
REMARK   37  A    between atoms: _100  and  _101
REMARK   38  A    between atoms: _107  and  _109
REMARK   39  A    between atoms: _120  and  _123
REMARK   40  A    between atoms: _123  and  _124
REMARK   41  A    between atoms: _132  and  _133
REMARK   42  A    between atoms: _141  and  _143
REMARK   43  A    between atoms: _143  and  _144
REMARK   44  A    between atoms: _143  and  _146
REMARK   45  A    between atoms: _146  and  _147
REMARK   46  A    between atoms: _147  and  _148
REMARK   47  A    between atoms: _151  and  _153
REMARK   48  A    between atoms: _153  and  _154
REMARK   49  A    between atoms: _153  and  _156
REMARK   50  A    between atoms: _156  and  _157
REMARK   51  A    between atoms: _162  and  _164
REMARK   52  A    between atoms: _164  and  _165
REMARK   53  A    between atoms: _164  and  _167
REMARK   54  A    between atoms: _167  and  _168
REMARK   55  A    between atoms: _168  and  _169
REMARK   56  A    between atoms: _172  and  _174
REMARK   57  A    between atoms: _174  and  _175
REMARK   58  A    between atoms: _174  and  _177
REMARK   59  A    between atoms: _177  and  _178
REMARK   60  A    between atoms: _181  and  _183
REMARK   61  A    between atoms: _183  and  _184
REMARK   62  A    between atoms: _183  and  _186
REMARK   63  A    between atoms: _186  and  _187
REMARK   64  A    between atoms: _188  and  ZN_403
REMARK   65  A    between atoms: _192  and  _194
REMARK   66  A    between atoms: _194  and  _195
REMARK   67  A    between atoms: _194  and  _197
REMARK   68  A    between atoms: _197  and  _198
REMARK   69  A    between atoms: _201  and  _203
REMARK   70  A    between atoms: _203  and  _204
REMARK   71  A    between atoms: _203  and  _206
REMARK   72  A    between atoms: _209  and  _211
REMARK   73  A    between atoms: _211  and  _212
REMARK   74  A    between atoms: _211  and  _214
REMARK   75  A    between atoms: _214  and  _215
REMARK   76  A    between atoms: _220  and  _222
REMARK   77  A    between atoms: _222  and  _223
REMARK   78  A    between atoms: _222  and  _225
REMARK   79  A    between atoms: _225  and  _226
REMARK   80  A    between atoms: _232  and  _234
REMARK   81  A    between atoms: _234  and  _235
REMARK   82  A    between atoms: _234  and  _237
REMARK   83  A    between atoms: _240  and  _242
REMARK   84  A    between atoms: _242  and  _243
REMARK   85  A    between atoms: _242  and  _245
REMARK   86  A    between atoms: _245  and  _246
REMARK   87  A    between atoms: _249  and  _251
REMARK   88  A    between atoms: _251  and  _252
REMARK   89  A    between atoms: _255  and  _257
REMARK   90  A    between atoms: _257  and  _258
REMARK   91  A    between atoms: _257  and  _260
REMARK   92  A    between atoms: _263  and  _265
REMARK   93  A    between atoms: _265  and  _266
REMARK   94  A    between atoms: _265  and  _268
REMARK   95  A    between atoms: _268  and  _269
REMARK   96  A    between atoms: _272  and  _274
REMARK   97  A    between atoms: _274  and  _275
REMARK   98  A    between atoms: _277  and  _279
REMARK   99  A    between atoms: _279  and  _280
REMARK  100  A    between atoms: _279  and  _282
REMARK  101  A    between atoms: _282  and  _283
REMARK  102  A    between atoms: _285  and  _287
REMARK  103  A    between atoms: _287  and  _288
REMARK  104  A    between atoms: _287  and  _290
REMARK  105  A    between atoms: _290  and  _291
REMARK  106  A    between atoms: _294  and  _296
REMARK  107  A    between atoms: _296  and  _297
REMARK  108  A    between atoms: _296  and  _299
REMARK  109  A    between atoms: _299  and  _300
REMARK  110  A    between atoms: _303  and  _305
REMARK  111  A    between atoms: _305  and  _306
REMARK  112  A    between atoms: _305  and  _308
REMARK  113  A    between atoms: _308  and  _309
REMARK  114  A    between atoms: _313  and  _314
REMARK  115  A    between atoms: _320  and  _321
REMARK  116  A    between atoms: _326  and  _328
REMARK  117  A    between atoms: _328  and  _329
REMARK  118  A    between atoms: _328  and  _331
REMARK  119  A    between atoms: _331  and  _332
REMARK  120  A    between atoms: _335  and  _337
REMARK  121  A    between atoms: _337  and  _338
REMARK  122  A    between atoms: _337  and  _340
REMARK  123  A    between atoms: _340  and  _341
REMARK  124  A    between atoms: _344  and  _346
REMARK  125  A    between atoms: _346  and  _347
REMARK  126  A    between atoms: _346  and  _349
REMARK  127  A    between atoms: _351  and  _353
REMARK  128  A    between atoms: _353  and  _354
REMARK  129  A    between atoms: _353  and  _356
REMARK  130  A    between atoms: _359  and  _361
REMARK  131  A    between atoms: _361  and  _362
REMARK  132  A    between atoms: _361  and  _364
REMARK  133  A    between atoms: _364  and  _365
REMARK  134  A    between atoms: _375  and  _377
REMARK  135  A    between atoms: _377  and  _378
REMARK  136  A    between atoms: _377  and  _380
REMARK  137  A    between atoms: _380  and  _381
REMARK  138  A    between atoms: _386  and  _388
REMARK  139  A    between atoms: _388  and  _389
REMARK  140  A    between atoms: _388  and  _391
REMARK  141  A    between atoms: _391  and  _392
REMARK  142  A    between atoms: _392  and  _393
REMARK  143  A    between atoms: _393  and  _394
REMARK                            x       y       z     vdW  Elec       q    Type
REMARK                         _______ _______ _______ _____ _____    ______ ____
ROOT
ATOM      1  C   CYS A   1      15.123   7.699  24.059  0.00  0.00    +0.239 C 
ATOM      2  N   VAL A   2      15.003   6.400  24.339  0.00  0.00    -0.298 N 
ATOM      3  H   VAL A   2      15.792   5.886  24.780  0.00  0.00    +0.150 HD
ATOM      4  O   CYS A   1      14.191   8.394  23.640  0.00  0.00    -0.274 OA
ENDROOT
BRANCH   1   5
ATOM      5  CA  CYS A   1      16.473   8.328  24.199  0.00  0.00    +0.156 C 
BRANCH   5   6
ATOM      6  N   CYS A   1      17.480   7.288  24.353  0.00  0.00    -0.237 NA
ATOM      7  H   CYS A   1      17.475   6.478  23.700  0.00  0.00    +0.142 HD
ENDBRANCH   5   6
BRANCH   5   8
ATOM      8  CB  CYS A   1      16.744   9.180  22.923  0.00  0.00    +0.095 C 
ATOM      9  SG  CYS A   1      16.837   8.176  21.384  0.00  0.00    -0.080 S 
ENDBRANCH   5   8
ENDBRANCH   1   5
BRANCH   2  10
ATOM     10  CA  VAL A   2      13.707   5.675  24.011  0.00  0.00    +0.137 C 
BRANCH  10  11
ATOM     11  CB  VAL A   2      13.997   4.407  23.120  0.00  0.00    +0.026 C 
ATOM     12  CG2 VAL A   2      12.673   3.760  22.704  0.00  0.00    +0.002 C 
ATOM     13  CG1 VAL A   2      14.790   4.812  21.834  0.00  0.00    +0.002 C 
ENDBRANCH  10  11
BRANCH  10  14
ATOM     14  C   VAL A   2      12.901   5.239  25.217  0.00  0.00    +0.227 C 
ATOM     15  O   VAL A   2      13.479   4.600  26.155  0.00  0.00    -0.286 OA
ENDBRANCH  10  14
ENDBRANCH   2  10
TORSDOF 6
REMARK  Name = ../refined-set-2016/3s76/3s76_pocket.pdb
REMARK  143 active torsions:
REMARK  status: ('A' for Active; 'I' for Inactive)
REMARK    1  A    between atoms: _1  and  _3
REMARK    2  A    between atoms: _3  and  _4
REMARK    3  A    between atoms: _3  and  _6
REMARK    4  A    between atoms: _6  and  _7
REMARK    5  A    between atoms: _17  and  _19
REMARK    6  A    between atoms: _19  and  _20
REMARK    7  A    between atoms: _19  and  _22
REMARK    8  A    between atoms: _22  and  _23
REMARK    9  A    between atoms: _28  and  _29
REMARK   10  A    between atoms: _31  and  _33
REMARK   11  A    between atoms: _33  and  _34
REMARK   12  A    between atoms: _33  and  _36
REMARK   13  A    between atoms: _36  and  _37
REMARK   14  A    between atoms: _40  and  _41
REMARK   15  A    between atoms: _46  and  _48
REMARK   16  A    between atoms: _48  and  _49
REMARK   17  A    between atoms: _48  and  _51
REMARK   18  A    between atoms: _51  and  _52
REMARK   19  A    between atoms: _57  and  _59
REMARK   20  A    between atoms: _59  and  _60
REMARK   21  A    between atoms: _63  and  _65
REMARK   22  A    between atoms: _65  and  _66
REMARK   23  A    between atoms: _65  and  _68
REMARK   24  A    between atoms: _68  and  _69
REMARK   25  A    between atoms: _74  and  _76
REMARK   26  A    between atoms: _76  and  _77
REMARK   27  A    between atoms: _76  and  _79
REMARK   28  A    between atoms: _79  and  _80
REMARK   29  A    between atoms: _83  and  _85
REMARK   30  A    between atoms: _85  and  _86
REMARK   31  A    between atoms: _85  and  _88
REMARK   32  A    between atoms: _88  and  _89
REMARK   33  A    between atoms: _89  and  _90
REMARK   34  A    between atoms: _95  and  _97
REMARK   35  A    between atoms: _97  and  _98
REMARK   36  A    between atoms: _97  and  _100
REMARK   37  A    between atoms: _100  and  _101
REMARK   38  A    between atoms: _107  and  _109
REMARK   39  A    between atoms: _120  and  _123
REMARK   40  A    between atoms: _123  and  _124
REMARK   41  A    between atoms: _132  and  _133
REMARK   42  A    between atoms: _141  and  _143
REMARK   43  A    between atoms: _143  and  _144
REMARK   44  A    between atoms: _143  and  _146
REMARK   45  A    between atoms: _146  and  _147
REMARK   46  A    between atoms: _147  and  _148
REMARK   47  A    between atoms: _151  and  _153
REMARK   48  A    between atoms: _153  and  _154
REMARK   49  A    between atoms: _153  and  _156
REMARK   50  A    between atoms: _156  and  _157
REMARK   51  A    between atoms: _162  and  _164
REMARK   52  A    between atoms: _164  and  _165
REMARK   53  A    between atoms: _164  and  _167
REMARK   54  A    between atoms: _167  and  _168
REMARK   55  A    between atoms: _168  and  _169
REMARK   56  A    between atoms: _172  and  _174
REMARK   57  A    between atoms: _174  and  _175
REMARK   58  A    between atoms: _174  and  _177
REMARK   59  A    between atoms: _177  and  _178
REMARK   60  A    between atoms: _181  and  _183
REMARK   61  A    between atoms: _183  and  _184
REMARK   62  A    between atoms: _183  and  _186
REMARK   63  A    between atoms: _186  and  _187
REMARK   64  A    between atoms: _188  and  ZN_403
REMARK   65  A    between atoms: _192  and  _194
REMARK   66  A    between atoms: _194  and  _195
REMARK   67  A    between atoms: _194  and  _197
REMARK   68  A    between atoms: _197  and  _198
REMARK   69  A    between atoms: _201  and  _203
REMARK   70  A    between atoms: _203  and  _204
REMARK   71  A    between atoms: _203  and  _206
REMARK   72  A    between atoms: _209  and  _211
REMARK   73  A    between atoms: _211  and  _212
REMARK   74  A    between atoms: _211  and  _214
REMARK   75  A    between atoms: _214  and  _215
REMARK   76  A    between atoms: _220  and  _222
REMARK   77  A    between atoms: _222  and  _223
REMARK   78  A    between atoms: _222  and  _225
REMARK   79  A    between atoms: _225  and  _226
REMARK   80  A    between atoms: _232  and  _234
REMARK   81  A    between atoms: _234  and  _235
REMARK   82  A    between atoms: _234  and  _237
REMARK   83  A    between atoms: _240  and  _242
REMARK   84  A    between atoms: _242  and  _243
REMARK   85  A    between atoms: _242  and  _245
REMARK   86  A    between atoms: _245  and  _246
REMARK   87  A    between atoms: _249  and  _251
REMARK   88  A    between atoms: _251  and  _252
REMARK   89  A    between atoms: _255  and  _257
REMARK   90  A    between atoms: _257  and  _258
REMARK   91  A    between atoms: _257  and  _260
REMARK   92  A    between atoms: _263  and  _265
REMARK   93  A    between atoms: _265  and  _266
REMARK   94  A    between atoms: _265  and  _268
REMARK   95  A    between atoms: _268  and  _269
REMARK   96  A    between atoms: _272  and  _274
REMARK   97  A    between atoms: _274  and  _275
REMARK   98  A    between atoms: _277  and  _279
REMARK   99  A    between atoms: _279  and  _280
REMARK  100  A    between atoms: _279  and  _282
REMARK  101  A    between atoms: _282  and  _283
REMARK  102  A    between atoms: _285  and  _287
REMARK  103  A    between atoms: _287  and  _288
REMARK  104  A    between atoms: _287  and  _290
REMARK  105  A    between atoms: _290  and  _291
REMARK  106  A    between atoms: _294  and  _296
REMARK  107  A    between atoms: _296  and  _297
REMARK  108  A    between atoms: _296  and  _299
REMARK  109  A    between atoms: _299  and  _300
REMARK  110  A    between atoms: _303  and  _305
REMARK  111  A    between atoms: _305  and  _306
REMARK  112  A    between atoms: _305  and  _308
REMARK  113  A    between atoms: _308  and  _309
REMARK  114  A    between atoms: _313  and  _314
REMARK  115  A    between atoms: _320  and  _321
REMARK  116  A    between atoms: _326  and  _328
REMARK  117  A    between atoms: _328  and  _329
REMARK  118  A    between atoms: _328  and  _331
REMARK  119  A    between atoms: _331  and  _332
REMARK  120  A    between atoms: _335  and  _337
REMARK  121  A    between atoms: _337  and  _338
REMARK  122  A    between atoms: _337  and  _340
REMARK  123  A    between atoms: _340  and  _341
REMARK  124  A    between atoms: _344  and  _346
REMARK  125  A    between atoms: _346  and  _347
REMARK  126  A    between atoms: _346  and  _349
REMARK  127  A    between atoms: _351  and  _353
REMARK  128  A    between atoms: _353  and  _354
REMARK  129  A    between atoms: _353  and  _356
REMARK  130  A    between atoms: _359  and  _361
REMARK  131  A    between atoms: _361  and  _362
REMARK  132  A    between atoms: _361  and  _364
REMARK  133  A    between atoms: _364  and  _365
REMARK  134  A    between atoms: _375  and  _377
REMARK  135  A    between atoms: _377  and  _378
REMARK  136  A    between atoms: _377  and  _380
REMARK  137  A    between atoms: _380  and  _381
REMARK  138  A    between atoms: _386  and  _388
REMARK  139  A    between atoms: _388  and  _389
REMARK  140  A    between atoms: _388  and  _391
REMARK  141  A    between atoms: _391  and  _392
REMARK  142  A    between atoms: _392  and  _393
REMARK  143  A    between atoms: _393  and  _394
REMARK                            x       y       z     vdW  Elec       q    Type
REMARK                         _______ _______ _______ _____ _____    ______ ____
ROOT
ATOM      1  CG  TRP A   1      12.190   0.225  24.240  0.00  0.00    -0.002 A 
ATOM      2  CD1 TRP A   1      13.460   0.785  24.411  0.00  0.00    +0.068 A 
ATOM      3  NE1 TRP A   1      14.152   0.753  23.218  0.00  0.00    -0.352 N 
ATOM      4  HE1 TRP A   1      15.105   1.140  23.065  0.00  0.00    +0.166 HD
ATOM      5  CE2 TRP A   1      13.384   0.129  22.264  0.00  0.00    +0.056 A 
ATOM      6  CZ2 TRP A   1      13.699  -0.132  20.911  0.00  0.00    +0.017 A 
ATOM      7  CH2 TRP A   1      12.703  -0.807  20.164  0.00  0.00    +0.001 A 
ATOM      8  CZ3 TRP A   1      11.455  -1.190  20.770  0.00  0.00    +0.000 A 
ATOM      9  CE3 TRP A   1      11.150  -0.891  22.084  0.00  0.00    +0.001 A 
ATOM     10  CD2 TRP A   1      12.142  -0.232  22.867  0.00  0.00    +0.013 A 
ENDROOT
BRANCH   1  11
ATOM     11  CB  TRP A   1      11.096   0.075  25.263  0.00  0.00    +0.053 C 
BRANCH  11  12
ATOM     12  CA  TRP A   1      10.071   1.252  25.017  0.00  0.00    +0.137 C 
BRANCH  12  13
ATOM     13  N   TRP A   1      10.526   2.483  25.722  0.00  0.00    -0.239 NA
ATOM     14  H   TRP A   1      11.107   2.405  26.581  0.00  0.00    +0.142 HD
ENDBRANCH  12  13
BRANCH  12  15
ATOM     15  C   TRP A   1       8.693   0.849  25.514  0.00  0.00    +0.224 C 
ATOM     16  O   TRP A   1       8.449   0.788  26.702  0.00  0.00    -0.287 OA
ENDBRANCH  12  15
ENDBRANCH  11  12
ENDBRANCH   1  11
TORSDOF 4
REMARK  Name = ../refined-set-2016/3s76/3s76_pocket.pdb
REMARK  143 active torsions:
REMARK  status: ('A' for Active; 'I' for Inactive)
REMARK    1  A    between atoms: _1  and  _3
REMARK    2  A    between atoms: _3  and  _4
REMARK    3  A    between atoms: _3  and  _6
REMARK    4  A    between atoms: _6  and  _7
REMARK    5  A    between atoms: _17  and  _19
REMARK    6  A    between atoms: _19  and  _20
REMARK    7  A    between atoms: _19  and  _22
REMARK    8  A    between atoms: _22  and  _23
REMARK    9  A    between atoms: _28  and  _29
REMARK   10  A    between atoms: _31  and  _33
REMARK   11  A    between atoms: _33  and  _34
REMARK   12  A    between atoms: _33  and  _36
REMARK   13  A    between atoms: _36  and  _37
REMARK   14  A    between atoms: _40  and  _41
REMARK   15  A    between atoms: _46  and  _48
REMARK   16  A    between atoms: _48  and  _49
REMARK   17  A    between atoms: _48  and  _51
REMARK   18  A    between atoms: _51  and  _52
REMARK   19  A    between atoms: _57  and  _59
REMARK   20  A    between atoms: _59  and  _60
REMARK   21  A    between atoms: _63  and  _65
REMARK   22  A    between atoms: _65  and  _66
REMARK   23  A    between atoms: _65  and  _68
REMARK   24  A    between atoms: _68  and  _69
REMARK   25  A    between atoms: _74  and  _76
REMARK   26  A    between atoms: _76  and  _77
REMARK   27  A    between atoms: _76  and  _79
REMARK   28  A    between atoms: _79  and  _80
REMARK   29  A    between atoms: _83  and  _85
REMARK   30  A    between atoms: _85  and  _86
REMARK   31  A    between atoms: _85  and  _88
REMARK   32  A    between atoms: _88  and  _89
REMARK   33  A    between atoms: _89  and  _90
REMARK   34  A    between atoms: _95  and  _97
REMARK   35  A    between atoms: _97  and  _98
REMARK   36  A    between atoms: _97  and  _100
REMARK   37  A    between atoms: _100  and  _101
REMARK   38  A    between atoms: _107  and  _109
REMARK   39  A    between atoms: _120  and  _123
REMARK   40  A    between atoms: _123  and  _124
REMARK   41  A    between atoms: _132  and  _133
REMARK   42  A    between atoms: _141  and  _143
REMARK   43  A    between atoms: _143  and  _144
REMARK   44  A    between atoms: _143  and  _146
REMARK   45  A    between atoms: _146  and  _147
REMARK   46  A    between atoms: _147  and  _148
REMARK   47  A    between atoms: _151  and  _153
REMARK   48  A    between atoms: _153  and  _154
REMARK   49  A    between atoms: _153  and  _156
REMARK   50  A    between atoms: _156  and  _157
REMARK   51  A    between atoms: _162  and  _164
REMARK   52  A    between atoms: _164  and  _165
REMARK   53  A    between atoms: _164  and  _167
REMARK   54  A    between atoms: _167  and  _168
REMARK   55  A    between atoms: _168  and  _169
REMARK   56  A    between atoms: _172  and  _174
REMARK   57  A    between atoms: _174  and  _175
REMARK   58  A    between atoms: _174  and  _177
REMARK   59  A    between atoms: _177  and  _178
REMARK   60  A    between atoms: _181  and  _183
REMARK   61  A    between atoms: _183  and  _184
REMARK   62  A    between atoms: _183  and  _186
REMARK   63  A    between atoms: _186  and  _187
REMARK   64  A    between atoms: _188  and  ZN_403
REMARK   65  A    between atoms: _192  and  _194
REMARK   66  A    between atoms: _194  and  _195
REMARK   67  A    between atoms: _194  and  _197
REMARK   68  A    between atoms: _197  and  _198
REMARK   69  A    between atoms: _201  and  _203
REMARK   70  A    between atoms: _203  and  _204
REMARK   71  A    between atoms: _203  and  _206
REMARK   72  A    between atoms: _209  and  _211
REMARK   73  A    between atoms: _211  and  _212
REMARK   74  A    between atoms: _211  and  _214
REMARK   75  A    between atoms: _214  and  _215
REMARK   76  A    between atoms: _220  and  _222
REMARK   77  A    between atoms: _222  and  _223
REMARK   78  A    between atoms: _222  and  _225
REMARK   79  A    between atoms: _225  and  _226
REMARK   80  A    between atoms: _232  and  _234
REMARK   81  A    between atoms: _234  and  _235
REMARK   82  A    between atoms: _234  and  _237
REMARK   83  A    between atoms: _240  and  _242
REMARK   84  A    between atoms: _242  and  _243
REMARK   85  A    between atoms: _242  and  _245
REMARK   86  A    between atoms: _245  and  _246
REMARK   87  A    between atoms: _249  and  _251
REMARK   88  A    between atoms: _251  and  _252
REMARK   89  A    between atoms: _255  and  _257
REMARK   90  A    between atoms: _257  and  _258
REMARK   91  A    between atoms: _257  and  _260
REMARK   92  A    between atoms: _263  and  _265
REMARK   93  A    between atoms: _265  and  _266
REMARK   94  A    between atoms: _265  and  _268
REMARK   95  A    between atoms: _268  and  _269
REMARK   96  A    between atoms: _272  and  _274
REMARK   97  A    between atoms: _274  and  _275
REMARK   98  A    between atoms: _277  and  _279
REMARK   99  A    between atoms: _279  and  _280
REMARK  100  A    between atoms: _279  and  _282
REMARK  101  A    between atoms: _282  and  _283
REMARK  102  A    between atoms: _285  and  _287
REMARK  103  A    between atoms: _287  and  _288
REMARK  104  A    between atoms: _287  and  _290
REMARK  105  A    between atoms: _290  and  _291
REMARK  106  A    between atoms: _294  and  _296
REMARK  107  A    between atoms: _296  and  _297
REMARK  108  A    between atoms: _296  and  _299
REMARK  109  A    between atoms: _299  and  _300
REMARK  110  A    between atoms: _303  and  _305
REMARK  111  A    between atoms: _305  and  _306
REMARK  112  A    between atoms: _305  and  _308
REMARK  113  A    between atoms: _308  and  _309
REMARK  114  A    between atoms: _313  and  _314
REMARK  115  A    between atoms: _320  and  _321
REMARK  116  A    between atoms: _326  and  _328
REMARK  117  A    between atoms: _328  and  _329
REMARK  118  A    between atoms: _328  and  _331
REMARK  119  A    between atoms: _331  and  _332
REMARK  120  A    between atoms: _335  and  _337
REMARK  121  A    between atoms: _337  and  _338
REMARK  122  A    between atoms: _337  and  _340
REMARK  123  A    between atoms: _340  and  _341
REMARK  124  A    between atoms: _344  and  _346
REMARK  125  A    between atoms: _346  and  _347
REMARK  126  A    between atoms: _346  and  _349
REMARK  127  A    between atoms: _351  and  _353
REMARK  128  A    between atoms: _353  and  _354
REMARK  129  A    between atoms: _353  and  _356
REMARK  130  A    between atoms: _359  and  _361
REMARK  131  A    between atoms: _361  and  _362
REMARK  132  A    between atoms: _361  and  _364
REMARK  133  A    between atoms: _364  and  _365
REMARK  134  A    between atoms: _375  and  _377
REMARK  135  A    between atoms: _377  and  _378
REMARK  136  A    between atoms: _377  and  _380
REMARK  137  A    between atoms: _380  and  _381
REMARK  138  A    between atoms: _386  and  _388
REMARK  139  A    between atoms: _388  and  _389
REMARK  140  A    between atoms: _388  and  _391
REMARK  141  A    between atoms: _391  and  _392
REMARK  142  A    between atoms: _392  and  _393
REMARK  143  A    between atoms: _393  and  _394
REMARK                            x       y       z     vdW  Elec       q    Type
REMARK                         _______ _______ _______ _____ _____    ______ ____
ROOT
ATOM      1  CB  ASN A   1      18.998  -7.267  10.550  0.00  0.00    +0.110 C 
ENDROOT
BRANCH   1   2
ATOM      2  CG  ASN A   1      17.540  -7.510  10.267  0.00  0.00    +0.221 C 
ATOM      3  OD1 ASN A   1      16.839  -8.316  10.843  0.00  0.00    -0.275 OA
ATOM      4  ND2 ASN A   1      17.064  -6.705   9.331  0.00  0.00    -0.329 N 
ATOM      5 HD21 ASN A   1      16.059  -6.751   9.068  0.00  0.00    +0.145 HD
ATOM      6 HD22 ASN A   1      17.695  -6.026   8.859  0.00  0.00    +0.145 HD
ENDBRANCH   1   2
BRANCH   1   7
ATOM      7  CA  ASN A   1      19.545  -8.115  11.674  0.00  0.00    +0.142 C 
BRANCH   7   8
ATOM      8  N   ASN A   1      19.223  -9.511  11.440  0.00  0.00    -0.239 NA
ATOM      9  H   ASN A   1      18.310  -9.789  11.028  0.00  0.00    +0.142 HD
ENDBRANCH   7   8
BRANCH   7  10
ATOM     10  C   ASN A   1      18.979  -7.676  13.016  0.00  0.00    +0.225 C 
ATOM     11  O   ASN A   1      18.206  -6.681  13.117  0.00  0.00    -0.287 OA
ENDBRANCH   7  10
ENDBRANCH   1   7
TORSDOF 4
REMARK  Name = ../refined-set-2016/3s76/3s76_pocket.pdb
REMARK  143 active torsions:
REMARK  status: ('A' for Active; 'I' for Inactive)
REMARK    1  A    between atoms: _1  and  _3
REMARK    2  A    between atoms: _3  and  _4
REMARK    3  A    between atoms: _3  and  _6
REMARK    4  A    between atoms: _6  and  _7
REMARK    5  A    between atoms: _17  and  _19
REMARK    6  A    between atoms: _19  and  _20
REMARK    7  A    between atoms: _19  and  _22
REMARK    8  A    between atoms: _22  and  _23
REMARK    9  A    between atoms: _28  and  _29
REMARK   10  A    between atoms: _31  and  _33
REMARK   11  A    between atoms: _33  and  _34
REMARK   12  A    between atoms: _33  and  _36
REMARK   13  A    between atoms: _36  and  _37
REMARK   14  A    between atoms: _40  and  _41
REMARK   15  A    between atoms: _46  and  _48
REMARK   16  A    between atoms: _48  and  _49
REMARK   17  A    between atoms: _48  and  _51
REMARK   18  A    between atoms: _51  and  _52
REMARK   19  A    between atoms: _57  and  _59
REMARK   20  A    between atoms: _59  and  _60
REMARK   21  A    between atoms: _63  and  _65
REMARK   22  A    between atoms: _65  and  _66
REMARK   23  A    between atoms: _65  and  _68
REMARK   24  A    between atoms: _68  and  _69
REMARK   25  A    between atoms: _74  and  _76
REMARK   26  A    between atoms: _76  and  _77
REMARK   27  A    between atoms: _76  and  _79
REMARK   28  A    between atoms: _79  and  _80
REMARK   29  A    between atoms: _83  and  _85
REMARK   30  A    between atoms: _85  and  _86
REMARK   31  A    between atoms: _85  and  _88
REMARK   32  A    between atoms: _88  and  _89
REMARK   33  A    between atoms: _89  and  _90
REMARK   34  A    between atoms: _95  and  _97
REMARK   35  A    between atoms: _97  and  _98
REMARK   36  A    between atoms: _97  and  _100
REMARK   37  A    between atoms: _100  and  _101
REMARK   38  A    between atoms: _107  and  _109
REMARK   39  A    between atoms: _120  and  _123
REMARK   40  A    between atoms: _123  and  _124
REMARK   41  A    between atoms: _132  and  _133
REMARK   42  A    between atoms: _141  and  _143
REMARK   43  A    between atoms: _143  and  _144
REMARK   44  A    between atoms: _143  and  _146
REMARK   45  A    between atoms: _146  and  _147
REMARK   46  A    between atoms: _147  and  _148
REMARK   47  A    between atoms: _151  and  _153
REMARK   48  A    between atoms: _153  and  _154
REMARK   49  A    between atoms: _153  and  _156
REMARK   50  A    between atoms: _156  and  _157
REMARK   51  A    between atoms: _162  and  _164
REMARK   52  A    between atoms: _164  and  _165
REMARK   53  A    between atoms: _164  and  _167
REMARK   54  A    between atoms: _167  and  _168
REMARK   55  A    between atoms: _168  and  _169
REMARK   56  A    between atoms: _172  and  _174
REMARK   57  A    between atoms: _174  and  _175
REMARK   58  A    between atoms: _174  and  _177
REMARK   59  A    between atoms: _177  and  _178
REMARK   60  A    between atoms: _181  and  _183
REMARK   61  A    between atoms: _183  and  _184
REMARK   62  A    between atoms: _183  and  _186
REMARK   63  A    between atoms: _186  and  _187
REMARK   64  A    between atoms: _188  and  ZN_403
REMARK   65  A    between atoms: _192  and  _194
REMARK   66  A    between atoms: _194  and  _195
REMARK   67  A    between atoms: _194  and  _197
REMARK   68  A    between atoms: _197  and  _198
REMARK   69  A    between atoms: _201  and  _203
REMARK   70  A    between atoms: _203  and  _204
REMARK   71  A    between atoms: _203  and  _206
REMARK   72  A    between atoms: _209  and  _211
REMARK   73  A    between atoms: _211  and  _212
REMARK   74  A    between atoms: _211  and  _214
REMARK   75  A    between atoms: _214  and  _215
REMARK   76  A    between atoms: _220  and  _222
REMARK   77  A    between atoms: _222  and  _223
REMARK   78  A    between atoms: _222  and  _225
REMARK   79  A    between atoms: _225  and  _226
REMARK   80  A    between atoms: _232  and  _234
REMARK   81  A    between atoms: _234  and  _235
REMARK   82  A    between atoms: _234  and  _237
REMARK   83  A    between atoms: _240  and  _242
REMARK   84  A    between atoms: _242  and  _243
REMARK   85  A    between atoms: _242  and  _245
REMARK   86  A    between atoms: _245  and  _246
REMARK   87  A    between atoms: _249  and  _251
REMARK   88  A    between atoms: _251  and  _252
REMARK   89  A    between atoms: _255  and  _257
REMARK   90  A    between atoms: _257  and  _258
REMARK   91  A    between atoms: _257  and  _260
REMARK   92  A    between atoms: _263  and  _265
REMARK   93  A    between atoms: _265  and  _266
REMARK   94  A    between atoms: _265  and  _268
REMARK   95  A    between atoms: _268  and  _269
REMARK   96  A    between atoms: _272  and  _274
REMARK   97  A    between atoms: _274  and  _275
REMARK   98  A    between atoms: _277  and  _279
REMARK   99  A    between atoms: _279  and  _280
REMARK  100  A    between atoms: _279  and  _282
REMARK  101  A    between atoms: _282  and  _283
REMARK  102  A    between atoms: _285  and  _287
REMARK  103  A    between atoms: _287  and  _288
REMARK  104  A    between atoms: _287  and  _290
REMARK  105  A    between atoms: _290  and  _291
REMARK  106  A    between atoms: _294  and  _296
REMARK  107  A    between atoms: _296  and  _297
REMARK  108  A    between atoms: _296  and  _299
REMARK  109  A    between atoms: _299  and  _300
REMARK  110  A    between atoms: _303  and  _305
REMARK  111  A    between atoms: _305  and  _306
REMARK  112  A    between atoms: _305  and  _308
REMARK  113  A    between atoms: _308  and  _309
REMARK  114  A    between atoms: _313  and  _314
REMARK  115  A    between atoms: _320  and  _321
REMARK  116  A    between atoms: _326  and  _328
REMARK  117  A    between atoms: _328  and  _329
REMARK  118  A    between atoms: _328  and  _331
REMARK  119  A    between atoms: _331  and  _332
REMARK  120  A    between atoms: _335  and  _337
REMARK  121  A    between atoms: _337  and  _338
REMARK  122  A    between atoms: _337  and  _340
REMARK  123  A    between atoms: _340  and  _341
REMARK  124  A    between atoms: _344  and  _346
REMARK  125  A    between atoms: _346  and  _347
REMARK  126  A    between atoms: _346  and  _349
REMARK  127  A    between atoms: _351  and  _353
REMARK  128  A    between atoms: _353  and  _354
REMARK  129  A    between atoms: _353  and  _356
REMARK  130  A    between atoms: _359  and  _361
REMARK  131  A    between atoms: _361  and  _362
REMARK  132  A    between atoms: _361  and  _364
REMARK  133  A    between atoms: _364  and  _365
REMARK  134  A    between atoms: _375  and  _377
REMARK  135  A    between atoms: _377  and  _378
REMARK  136  A    between atoms: _377  and  _380
REMARK  137  A    between atoms: _380  and  _381
REMARK  138  A    between atoms: _386  and  _388
REMARK  139  A    between atoms: _388  and  _389
REMARK  140  A    between atoms: _388  and  _391
REMARK  141  A    between atoms: _391  and  _392
REMARK  142  A    between atoms: _392  and  _393
REMARK  143  A    between atoms: _393  and  _394
REMARK                            x       y       z     vdW  Elec       q    Type
REMARK                         _______ _______ _______ _____ _____    ______ ____
ROOT
ATOM      1  NE  ARG A   1      23.200  -3.713  21.304  0.00  0.00    -0.265 N 
ATOM      2  CZ  ARG A   1      23.394  -2.693  22.149  0.00  0.00    +0.342 C 
ATOM      3  NH2 ARG A   1      24.580  -2.528  22.715  0.00  0.00    -0.292 N 
ATOM      4 HH21 ARG A   1      24.737  -1.738  23.372  0.00  0.00    +0.255 HD
ATOM      5 HH22 ARG A   1      25.354  -3.189  22.502  0.00  0.00    +0.255 HD
ATOM      6  NH1 ARG A   1      22.412  -1.835  22.447  0.00  0.00    -0.292 N 
ATOM      7 HH11 ARG A   1      22.589  -1.051  23.107  0.00  0.00    +0.255 HD
ATOM      8 HH12 ARG A   1      21.471  -1.952  22.019  0.00  0.00    +0.255 HD
ATOM      9  HE  ARG A   1      23.997  -4.355  21.121  0.00  0.00    +0.259 HD
ENDROOT
BRANCH   1  10
ATOM     10  CD  ARG A   1      21.887  -3.987  20.598  0.00  0.00    +0.174 C 
BRANCH  10  11
ATOM     11  CG  ARG A   1      21.997  -5.327  19.910  0.00  0.00    +0.045 C 
BRANCH  11  12
ATOM     12  CB  ARG A   1      20.879  -5.566  18.916  0.00  0.00    +0.029 C 
BRANCH  12  13
ATOM     13  CA  ARG A   1      20.859  -7.010  18.451  0.00  0.00    +0.133 C 
BRANCH  13  14
ATOM     14  N   ARG A   1      19.900  -7.141  17.338  0.00  0.00    -0.239 NA
ATOM     15  H   ARG A   1      19.065  -6.521  17.335  0.00  0.00    +0.142 HD
ENDBRANCH  13  14
BRANCH  13  16
ATOM     16  C   ARG A   1      20.371  -7.934  19.597  0.00  0.00    +0.224 C 
ATOM     17  O   ARG A   1      19.193  -7.966  19.910  0.00  0.00    -0.287 OA
ENDBRANCH  13  16
ENDBRANCH  12  13
ENDBRANCH  11  12
ENDBRANCH  10  11
ENDBRANCH   1  10
TORSDOF 6
REMARK  Name = ../refined-set-2016/3s76/3s76_pocket.pdb
REMARK  143 active torsions:
REMARK  status: ('A' for Active; 'I' for Inactive)
REMARK    1  A    between atoms: _1  and  _3
REMARK    2  A    between atoms: _3  and  _4
REMARK    3  A    between atoms: _3  and  _6
REMARK    4  A    between atoms: _6  and  _7
REMARK    5  A    between atoms: _17  and  _19
REMARK    6  A    between atoms: _19  and  _20
REMARK    7  A    between atoms: _19  and  _22
REMARK    8  A    between atoms: _22  and  _23
REMARK    9  A    between atoms: _28  and  _29
REMARK   10  A    between atoms: _31  and  _33
REMARK   11  A    between atoms: _33  and  _34
REMARK   12  A    between atoms: _33  and  _36
REMARK   13  A    between atoms: _36  and  _37
REMARK   14  A    between atoms: _40  and  _41
REMARK   15  A    between atoms: _46  and  _48
REMARK   16  A    between atoms: _48  and  _49
REMARK   17  A    between atoms: _48  and  _51
REMARK   18  A    between atoms: _51  and  _52
REMARK   19  A    between atoms: _57  and  _59
REMARK   20  A    between atoms: _59  and  _60
REMARK   21  A    between atoms: _63  and  _65
REMARK   22  A    between atoms: _65  and  _66
REMARK   23  A    between atoms: _65  and  _68
REMARK   24  A    between atoms: _68  and  _69
REMARK   25  A    between atoms: _74  and  _76
REMARK   26  A    between atoms: _76  and  _77
REMARK   27  A    between atoms: _76  and  _79
REMARK   28  A    between atoms: _79  and  _80
REMARK   29  A    between atoms: _83  and  _85
REMARK   30  A    between atoms: _85  and  _86
REMARK   31  A    between atoms: _85  and  _88
REMARK   32  A    between atoms: _88  and  _89
REMARK   33  A    between atoms: _89  and  _90
REMARK   34  A    between atoms: _95  and  _97
REMARK   35  A    between atoms: _97  and  _98
REMARK   36  A    between atoms: _97  and  _100
REMARK   37  A    between atoms: _100  and  _101
REMARK   38  A    between atoms: _107  and  _109
REMARK   39  A    between atoms: _120  and  _123
REMARK   40  A    between atoms: _123  and  _124
REMARK   41  A    between atoms: _132  and  _133
REMARK   42  A    between atoms: _141  and  _143
REMARK   43  A    between atoms: _143  and  _144
REMARK   44  A    between atoms: _143  and  _146
REMARK   45  A    between atoms: _146  and  _147
REMARK   46  A    between atoms: _147  and  _148
REMARK   47  A    between atoms: _151  and  _153
REMARK   48  A    between atoms: _153  and  _154
REMARK   49  A    between atoms: _153  and  _156
REMARK   50  A    between atoms: _156  and  _157
REMARK   51  A    between atoms: _162  and  _164
REMARK   52  A    between atoms: _164  and  _165
REMARK   53  A    between atoms: _164  and  _167
REMARK   54  A    between atoms: _167  and  _168
REMARK   55  A    between atoms: _168  and  _169
REMARK   56  A    between atoms: _172  and  _174
REMARK   57  A    between atoms: _174  and  _175
REMARK   58  A    between atoms: _174  and  _177
REMARK   59  A    between atoms: _177  and  _178
REMARK   60  A    between atoms: _181  and  _183
REMARK   61  A    between atoms: _183  and  _184
REMARK   62  A    between atoms: _183  and  _186
REMARK   63  A    between atoms: _186  and  _187
REMARK   64  A    between atoms: _188  and  ZN_403
REMARK   65  A    between atoms: _192  and  _194
REMARK   66  A    between atoms: _194  and  _195
REMARK   67  A    between atoms: _194  and  _197
REMARK   68  A    between atoms: _197  and  _198
REMARK   69  A    between atoms: _201  and  _203
REMARK   70  A    between atoms: _203  and  _204
REMARK   71  A    between atoms: _203  and  _206
REMARK   72  A    between atoms: _209  and  _211
REMARK   73  A    between atoms: _211  and  _212
REMARK   74  A    between atoms: _211  and  _214
REMARK   75  A    between atoms: _214  and  _215
REMARK   76  A    between atoms: _220  and  _222
REMARK   77  A    between atoms: _222  and  _223
REMARK   78  A    between atoms: _222  and  _225
REMARK   79  A    between atoms: _225  and  _226
REMARK   80  A    between atoms: _232  and  _234
REMARK   81  A    between atoms: _234  and  _235
REMARK   82  A    between atoms: _234  and  _237
REMARK   83  A    between atoms: _240  and  _242
REMARK   84  A    between atoms: _242  and  _243
REMARK   85  A    between atoms: _242  and  _245
REMARK   86  A    between atoms: _245  and  _246
REMARK   87  A    between atoms: _249  and  _251
REMARK   88  A    between atoms: _251  and  _252
REMARK   89  A    between atoms: _255  and  _257
REMARK   90  A    between atoms: _257  and  _258
REMARK   91  A    between atoms: _257  and  _260
REMARK   92  A    between atoms: _263  and  _265
REMARK   93  A    between atoms: _265  and  _266
REMARK   94  A    between atoms: _265  and  _268
REMARK   95  A    between atoms: _268  and  _269
REMARK   96  A    between atoms: _272  and  _274
REMARK   97  A    between atoms: _274  and  _275
REMARK   98  A    between atoms: _277  and  _279
REMARK   99  A    between atoms: _279  and  _280
REMARK  100  A    between atoms: _279  and  _282
REMARK  101  A    between atoms: _282  and  _283
REMARK  102  A    between atoms: _285  and  _287
REMARK  103  A    between atoms: _287  and  _288
REMARK  104  A    between atoms: _287  and  _290
REMARK  105  A    between atoms: _290  and  _291
REMARK  106  A    between atoms: _294  and  _296
REMARK  107  A    between atoms: _296  and  _297
REMARK  108  A    between atoms: _296  and  _299
REMARK  109  A    between atoms: _299  and  _300
REMARK  110  A    between atoms: _303  and  _305
REMARK  111  A    between atoms: _305  and  _306
REMARK  112  A    between atoms: _305  and  _308
REMARK  113  A    between atoms: _308  and  _309
REMARK  114  A    between atoms: _313  and  _314
REMARK  115  A    between atoms: _320  and  _321
REMARK  116  A    between atoms: _326  and  _328
REMARK  117  A    between atoms: _328  and  _329
REMARK  118  A    between atoms: _328  and  _331
REMARK  119  A    between atoms: _331  and  _332
REMARK  120  A    between atoms: _335  and  _337
REMARK  121  A    between atoms: _337  and  _338
REMARK  122  A    between atoms: _337  and  _340
REMARK  123  A    between atoms: _340  and  _341
REMARK  124  A    between atoms: _344  and  _346
REMARK  125  A    between atoms: _346  and  _347
REMARK  126  A    between atoms: _346  and  _349
REMARK  127  A    between atoms: _351  and  _353
REMARK  128  A    between atoms: _353  and  _354
REMARK  129  A    between atoms: _353  and  _356
REMARK  130  A    between atoms: _359  and  _361
REMARK  131  A    between atoms: _361  and  _362
REMARK  132  A    between atoms: _361  and  _364
REMARK  133  A    between atoms: _364  and  _365
REMARK  134  A    between atoms: _375  and  _377
REMARK  135  A    between atoms: _377  and  _378
REMARK  136  A    between atoms: _377  and  _380
REMARK  137  A    between atoms: _380  and  _381
REMARK  138  A    between atoms: _386  and  _388
REMARK  139  A    between atoms: _388  and  _389
REMARK  140  A    between atoms: _388  and  _391
REMARK  141  A    between atoms: _391  and  _392
REMARK  142  A    between atoms: _392  and  _393
REMARK  143  A    between atoms: _393  and  _394
REMARK                            x       y       z     vdW  Elec       q    Type
REMARK                         _______ _______ _______ _____ _____    ______ ____
ROOT
ATOM      1  O   HOH     1      18.239  10.192  11.245  0.00  0.00    +0.000 OA
ENDROOT
TORSDOF 0
REMARK  Name = ../refined-set-2016/3s76/3s76_pocket.pdb
REMARK  143 active torsions:
REMARK  status: ('A' for Active; 'I' for Inactive)
REMARK    1  A    between atoms: _1  and  _3
REMARK    2  A    between atoms: _3  and  _4
REMARK    3  A    between atoms: _3  and  _6
REMARK    4  A    between atoms: _6  and  _7
REMARK    5  A    between atoms: _17  and  _19
REMARK    6  A    between atoms: _19  and  _20
REMARK    7  A    between atoms: _19  and  _22
REMARK    8  A    between atoms: _22  and  _23
REMARK    9  A    between atoms: _28  and  _29
REMARK   10  A    between atoms: _31  and  _33
REMARK   11  A    between atoms: _33  and  _34
REMARK   12  A    between atoms: _33  and  _36
REMARK   13  A    between atoms: _36  and  _37
REMARK   14  A    between atoms: _40  and  _41
REMARK   15  A    between atoms: _46  and  _48
REMARK   16  A    between atoms: _48  and  _49
REMARK   17  A    between atoms: _48  and  _51
REMARK   18  A    between atoms: _51  and  _52
REMARK   19  A    between atoms: _57  and  _59
REMARK   20  A    between atoms: _59  and  _60
REMARK   21  A    between atoms: _63  and  _65
REMARK   22  A    between atoms: _65  and  _66
REMARK   23  A    between atoms: _65  and  _68
REMARK   24  A    between atoms: _68  and  _69
REMARK   25  A    between atoms: _74  and  _76
REMARK   26  A    between atoms: _76  and  _77
REMARK   27  A    between atoms: _76  and  _79
REMARK   28  A    between atoms: _79  and  _80
REMARK   29  A    between atoms: _83  and  _85
REMARK   30  A    between atoms: _85  and  _86
REMARK   31  A    between atoms: _85  and  _88
REMARK   32  A    between atoms: _88  and  _89
REMARK   33  A    between atoms: _89  and  _90
REMARK   34  A    between atoms: _95  and  _97
REMARK   35  A    between atoms: _97  and  _98
REMARK   36  A    between atoms: _97  and  _100
REMARK   37  A    between atoms: _100  and  _101
REMARK   38  A    between atoms: _107  and  _109
REMARK   39  A    between atoms: _120  and  _123
REMARK   40  A    between atoms: _123  and  _124
REMARK   41  A    between atoms: _132  and  _133
REMARK   42  A    between atoms: _141  and  _143
REMARK   43  A    between atoms: _143  and  _144
REMARK   44  A    between atoms: _143  and  _146
REMARK   45  A    between atoms: _146  and  _147
REMARK   46  A    between atoms: _147  and  _148
REMARK   47  A    between atoms: _151  and  _153
REMARK   48  A    between atoms: _153  and  _154
REMARK   49  A    between atoms: _153  and  _156
REMARK   50  A    between atoms: _156  and  _157
REMARK   51  A    between atoms: _162  and  _164
REMARK   52  A    between atoms: _164  and  _165
REMARK   53  A    between atoms: _164  and  _167
REMARK   54  A    between atoms: _167  and  _168
REMARK   55  A    between atoms: _168  and  _169
REMARK   56  A    between atoms: _172  and  _174
REMARK   57  A    between atoms: _174  and  _175
REMARK   58  A    between atoms: _174  and  _177
REMARK   59  A    between atoms: _177  and  _178
REMARK   60  A    between atoms: _181  and  _183
REMARK   61  A    between atoms: _183  and  _184
REMARK   62  A    between atoms: _183  and  _186
REMARK   63  A    between atoms: _186  and  _187
REMARK   64  A    between atoms: _188  and  ZN_403
REMARK   65  A    between atoms: _192  and  _194
REMARK   66  A    between atoms: _194  and  _195
REMARK   67  A    between atoms: _194  and  _197
REMARK   68  A    between atoms: _197  and  _198
REMARK   69  A    between atoms: _201  and  _203
REMARK   70  A    between atoms: _203  and  _204
REMARK   71  A    between atoms: _203  and  _206
REMARK   72  A    between atoms: _209  and  _211
REMARK   73  A    between atoms: _211  and  _212
REMARK   74  A    between atoms: _211  and  _214
REMARK   75  A    between atoms: _214  and  _215
REMARK   76  A    between atoms: _220  and  _222
REMARK   77  A    between atoms: _222  and  _223
REMARK   78  A    between atoms: _222  and  _225
REMARK   79  A    between atoms: _225  and  _226
REMARK   80  A    between atoms: _232  and  _234
REMARK   81  A    between atoms: _234  and  _235
REMARK   82  A    between atoms: _234  and  _237
REMARK   83  A    between atoms: _240  and  _242
REMARK   84  A    between atoms: _242  and  _243
REMARK   85  A    between atoms: _242  and  _245
REMARK   86  A    between atoms: _245  and  _246
REMARK   87  A    between atoms: _249  and  _251
REMARK   88  A    between atoms: _251  and  _252
REMARK   89  A    between atoms: _255  and  _257
REMARK   90  A    between atoms: _257  and  _258
REMARK   91  A    between atoms: _257  and  _260
REMARK   92  A    between atoms: _263  and  _265
REMARK   93  A    between atoms: _265  and  _266
REMARK   94  A    between atoms: _265  and  _268
REMARK   95  A    between atoms: _268  and  _269
REMARK   96  A    between atoms: _272  and  _274
REMARK   97  A    between atoms: _274  and  _275
REMARK   98  A    between atoms: _277  and  _279
REMARK   99  A    between atoms: _279  and  _280
REMARK  100  A    between atoms: _279  and  _282
REMARK  101  A    between atoms: _282  and  _283
REMARK  102  A    between atoms: _285  and  _287
REMARK  103  A    between atoms: _287  and  _288
REMARK  104  A    between atoms: _287  and  _290
REMARK  105  A    between atoms: _290  and  _291
REMARK  106  A    between atoms: _294  and  _296
REMARK  107  A    between atoms: _296  and  _297
REMARK  108  A    between atoms: _296  and  _299
REMARK  109  A    between atoms: _299  and  _300
REMARK  110  A    between atoms: _303  and  _305
REMARK  111  A    between atoms: _305  and  _306
REMARK  112  A    between atoms: _305  and  _308
REMARK  113  A    between atoms: _308  and  _309
REMARK  114  A    between atoms: _313  and  _314
REMARK  115  A    between atoms: _320  and  _321
REMARK  116  A    between atoms: _326  and  _328
REMARK  117  A    between atoms: _328  and  _329
REMARK  118  A    between atoms: _328  and  _331
REMARK  119  A    between atoms: _331  and  _332
REMARK  120  A    between atoms: _335  and  _337
REMARK  121  A    between atoms: _337  and  _338
REMARK  122  A    between atoms: _337  and  _340
REMARK  123  A    between atoms: _340  and  _341
REMARK  124  A    between atoms: _344  and  _346
REMARK  125  A    between atoms: _346  and  _347
REMARK  126  A    between atoms: _346  and  _349
REMARK  127  A    between atoms: _351  and  _353
REMARK  128  A    between atoms: _353  and  _354
REMARK  129  A    between atoms: _353  and  _356
REMARK  130  A    between atoms: _359  and  _361
REMARK  131  A    between atoms: _361  and  _362
REMARK  132  A    between atoms: _361  and  _364
REMARK  133  A    between atoms: _364  and  _365
REMARK  134  A    between atoms: _375  and  _377
REMARK  135  A    between atoms: _377  and  _378
REMARK  136  A    between atoms: _377  and  _380
REMARK  137  A    between atoms: _380  and  _381
REMARK  138  A    between atoms: _386  and  _388
REMARK  139  A    between atoms: _388  and  _389
REMARK  140  A    between atoms: _388  and  _391
REMARK  141  A    between atoms: _391  and  _392
REMARK  142  A    between atoms: _392  and  _393
REMARK  143  A    between atoms: _393  and  _394
REMARK                            x       y       z     vdW  Elec       q    Type
REMARK                         _______ _______ _______ _____ _____    ______ ____
ROOT
ATOM      1  O   HOH     1      16.020   0.677  10.168  0.00  0.00    +0.000 OA
ENDROOT
TORSDOF 0
REMARK  Name = ../refined-set-2016/3s76/3s76_pocket.pdb
REMARK  143 active torsions:
REMARK  status: ('A' for Active; 'I' for Inactive)
REMARK    1  A    between atoms: _1  and  _3
REMARK    2  A    between atoms: _3  and  _4
REMARK    3  A    between atoms: _3  and  _6
REMARK    4  A    between atoms: _6  and  _7
REMARK    5  A    between atoms: _17  and  _19
REMARK    6  A    between atoms: _19  and  _20
REMARK    7  A    between atoms: _19  and  _22
REMARK    8  A    between atoms: _22  and  _23
REMARK    9  A    between atoms: _28  and  _29
REMARK   10  A    between atoms: _31  and  _33
REMARK   11  A    between atoms: _33  and  _34
REMARK   12  A    between atoms: _33  and  _36
REMARK   13  A    between atoms: _36  and  _37
REMARK   14  A    between atoms: _40  and  _41
REMARK   15  A    between atoms: _46  and  _48
REMARK   16  A    between atoms: _48  and  _49
REMARK   17  A    between atoms: _48  and  _51
REMARK   18  A    between atoms: _51  and  _52
REMARK   19  A    between atoms: _57  and  _59
REMARK   20  A    between atoms: _59  and  _60
REMARK   21  A    between atoms: _63  and  _65
REMARK   22  A    between atoms: _65  and  _66
REMARK   23  A    between atoms: _65  and  _68
REMARK   24  A    between atoms: _68  and  _69
REMARK   25  A    between atoms: _74  and  _76
REMARK   26  A    between atoms: _76  and  _77
REMARK   27  A    between atoms: _76  and  _79
REMARK   28  A    between atoms: _79  and  _80
REMARK   29  A    between atoms: _83  and  _85
REMARK   30  A    between atoms: _85  and  _86
REMARK   31  A    between atoms: _85  and  _88
REMARK   32  A    between atoms: _88  and  _89
REMARK   33  A    between atoms: _89  and  _90
REMARK   34  A    between atoms: _95  and  _97
REMARK   35  A    between atoms: _97  and  _98
REMARK   36  A    between atoms: _97  and  _100
REMARK   37  A    between atoms: _100  and  _101
REMARK   38  A    between atoms: _107  and  _109
REMARK   39  A    between atoms: _120  and  _123
REMARK   40  A    between atoms: _123  and  _124
REMARK   41  A    between atoms: _132  and  _133
REMARK   42  A    between atoms: _141  and  _143
REMARK   43  A    between atoms: _143  and  _144
REMARK   44  A    between atoms: _143  and  _146
REMARK   45  A    between atoms: _146  and  _147
REMARK   46  A    between atoms: _147  and  _148
REMARK   47  A    between atoms: _151  and  _153
REMARK   48  A    between atoms: _153  and  _154
REMARK   49  A    between atoms: _153  and  _156
REMARK   50  A    between atoms: _156  and  _157
REMARK   51  A    between atoms: _162  and  _164
REMARK   52  A    between atoms: _164  and  _165
REMARK   53  A    between atoms: _164  and  _167
REMARK   54  A    between atoms: _167  and  _168
REMARK   55  A    between atoms: _168  and  _169
REMARK   56  A    between atoms: _172  and  _174
REMARK   57  A    between atoms: _174  and  _175
REMARK   58  A    between atoms: _174  and  _177
REMARK   59  A    between atoms: _177  and  _178
REMARK   60  A    between atoms: _181  and  _183
REMARK   61  A    between atoms: _183  and  _184
REMARK   62  A    between atoms: _183  and  _186
REMARK   63  A    between atoms: _186  and  _187
REMARK   64  A    between atoms: _188  and  ZN_403
REMARK   65  A    between atoms: _192  and  _194
REMARK   66  A    between atoms: _194  and  _195
REMARK   67  A    between atoms: _194  and  _197
REMARK   68  A    between atoms: _197  and  _198
REMARK   69  A    between atoms: _201  and  _203
REMARK   70  A    between atoms: _203  and  _204
REMARK   71  A    between atoms: _203  and  _206
REMARK   72  A    between atoms: _209  and  _211
REMARK   73  A    between atoms: _211  and  _212
REMARK   74  A    between atoms: _211  and  _214
REMARK   75  A    between atoms: _214  and  _215
REMARK   76  A    between atoms: _220  and  _222
REMARK   77  A    between atoms: _222  and  _223
REMARK   78  A    between atoms: _222  and  _225
REMARK   79  A    between atoms: _225  and  _226
REMARK   80  A    between atoms: _232  and  _234
REMARK   81  A    between atoms: _234  and  _235
REMARK   82  A    between atoms: _234  and  _237
REMARK   83  A    between atoms: _240  and  _242
REMARK   84  A    between atoms: _242  and  _243
REMARK   85  A    between atoms: _242  and  _245
REMARK   86  A    between atoms: _245  and  _246
REMARK   87  A    between atoms: _249  and  _251
REMARK   88  A    between atoms: _251  and  _252
REMARK   89  A    between atoms: _255  and  _257
REMARK   90  A    between atoms: _257  and  _258
REMARK   91  A    between atoms: _257  and  _260
REMARK   92  A    between atoms: _263  and  _265
REMARK   93  A    between atoms: _265  and  _266
REMARK   94  A    between atoms: _265  and  _268
REMARK   95  A    between atoms: _268  and  _269
REMARK   96  A    between atoms: _272  and  _274
REMARK   97  A    between atoms: _274  and  _275
REMARK   98  A    between atoms: _277  and  _279
REMARK   99  A    between atoms: _279  and  _280
REMARK  100  A    between atoms: _279  and  _282
REMARK  101  A    between atoms: _282  and  _283
REMARK  102  A    between atoms: _285  and  _287
REMARK  103  A    between atoms: _287  and  _288
REMARK  104  A    between atoms: _287  and  _290
REMARK  105  A    between atoms: _290  and  _291
REMARK  106  A    between atoms: _294  and  _296
REMARK  107  A    between atoms: _296  and  _297
REMARK  108  A    between atoms: _296  and  _299
REMARK  109  A    between atoms: _299  and  _300
REMARK  110  A    between atoms: _303  and  _305
REMARK  111  A    between atoms: _305  and  _306
REMARK  112  A    between atoms: _305  and  _308
REMARK  113  A    between atoms: _308  and  _309
REMARK  114  A    between atoms: _313  and  _314
REMARK  115  A    between atoms: _320  and  _321
REMARK  116  A    between atoms: _326  and  _328
REMARK  117  A    between atoms: _328  and  _329
REMARK  118  A    between atoms: _328  and  _331
REMARK  119  A    between atoms: _331  and  _332
REMARK  120  A    between atoms: _335  and  _337
REMARK  121  A    between atoms: _337  and  _338
REMARK  122  A    between atoms: _337  and  _340
REMARK  123  A    between atoms: _340  and  _341
REMARK  124  A    between atoms: _344  and  _346
REMARK  125  A    between atoms: _346  and  _347
REMARK  126  A    between atoms: _346  and  _349
REMARK  127  A    between atoms: _351  and  _353
REMARK  128  A    between atoms: _353  and  _354
REMARK  129  A    between atoms: _353  and  _356
REMARK  130  A    between atoms: _359  and  _361
REMARK  131  A    between atoms: _361  and  _362
REMARK  132  A    between atoms: _361  and  _364
REMARK  133  A    between atoms: _364  and  _365
REMARK  134  A    between atoms: _375  and  _377
REMARK  135  A    between atoms: _377  and  _378
REMARK  136  A    between atoms: _377  and  _380
REMARK  137  A    between atoms: _380  and  _381
REMARK  138  A    between atoms: _386  and  _388
REMARK  139  A    between atoms: _388  and  _389
REMARK  140  A    between atoms: _388  and  _391
REMARK  141  A    between atoms: _391  and  _392
REMARK  142  A    between atoms: _392  and  _393
REMARK  143  A    between atoms: _393  and  _394
REMARK                            x       y       z     vdW  Elec       q    Type
REMARK                         _______ _______ _______ _____ _____    ______ ____
ROOT
ATOM      1  O   HOH     1      20.135   8.814  14.642  0.00  0.00    +0.000 OA
ENDROOT
TORSDOF 0
REMARK  Name = ../refined-set-2016/3s76/3s76_pocket.pdb
REMARK  143 active torsions:
REMARK  status: ('A' for Active; 'I' for Inactive)
REMARK    1  A    between atoms: _1  and  _3
REMARK    2  A    between atoms: _3  and  _4
REMARK    3  A    between atoms: _3  and  _6
REMARK    4  A    between atoms: _6  and  _7
REMARK    5  A    between atoms: _17  and  _19
REMARK    6  A    between atoms: _19  and  _20
REMARK    7  A    between atoms: _19  and  _22
REMARK    8  A    between atoms: _22  and  _23
REMARK    9  A    between atoms: _28  and  _29
REMARK   10  A    between atoms: _31  and  _33
REMARK   11  A    between atoms: _33  and  _34
REMARK   12  A    between atoms: _33  and  _36
REMARK   13  A    between atoms: _36  and  _37
REMARK   14  A    between atoms: _40  and  _41
REMARK   15  A    between atoms: _46  and  _48
REMARK   16  A    between atoms: _48  and  _49
REMARK   17  A    between atoms: _48  and  _51
REMARK   18  A    between atoms: _51  and  _52
REMARK   19  A    between atoms: _57  and  _59
REMARK   20  A    between atoms: _59  and  _60
REMARK   21  A    between atoms: _63  and  _65
REMARK   22  A    between atoms: _65  and  _66
REMARK   23  A    between atoms: _65  and  _68
REMARK   24  A    between atoms: _68  and  _69
REMARK   25  A    between atoms: _74  and  _76
REMARK   26  A    between atoms: _76  and  _77
REMARK   27  A    between atoms: _76  and  _79
REMARK   28  A    between atoms: _79  and  _80
REMARK   29  A    between atoms: _83  and  _85
REMARK   30  A    between atoms: _85  and  _86
REMARK   31  A    between atoms: _85  and  _88
REMARK   32  A    between atoms: _88  and  _89
REMARK   33  A    between atoms: _89  and  _90
REMARK   34  A    between atoms: _95  and  _97
REMARK   35  A    between atoms: _97  and  _98
REMARK   36  A    between atoms: _97  and  _100
REMARK   37  A    between atoms: _100  and  _101
REMARK   38  A    between atoms: _107  and  _109
REMARK   39  A    between atoms: _120  and  _123
REMARK   40  A    between atoms: _123  and  _124
REMARK   41  A    between atoms: _132  and  _133
REMARK   42  A    between atoms: _141  and  _143
REMARK   43  A    between atoms: _143  and  _144
REMARK   44  A    between atoms: _143  and  _146
REMARK   45  A    between atoms: _146  and  _147
REMARK   46  A    between atoms: _147  and  _148
REMARK   47  A    between atoms: _151  and  _153
REMARK   48  A    between atoms: _153  and  _154
REMARK   49  A    between atoms: _153  and  _156
REMARK   50  A    between atoms: _156  and  _157
REMARK   51  A    between atoms: _162  and  _164
REMARK   52  A    between atoms: _164  and  _165
REMARK   53  A    between atoms: _164  and  _167
REMARK   54  A    between atoms: _167  and  _168
REMARK   55  A    between atoms: _168  and  _169
REMARK   56  A    between atoms: _172  and  _174
REMARK   57  A    between atoms: _174  and  _175
REMARK   58  A    between atoms: _174  and  _177
REMARK   59  A    between atoms: _177  and  _178
REMARK   60  A    between atoms: _181  and  _183
REMARK   61  A    between atoms: _183  and  _184
REMARK   62  A    between atoms: _183  and  _186
REMARK   63  A    between atoms: _186  and  _187
REMARK   64  A    between atoms: _188  and  ZN_403
REMARK   65  A    between atoms: _192  and  _194
REMARK   66  A    between atoms: _194  and  _195
REMARK   67  A    between atoms: _194  and  _197
REMARK   68  A    between atoms: _197  and  _198
REMARK   69  A    between atoms: _201  and  _203
REMARK   70  A    between atoms: _203  and  _204
REMARK   71  A    between atoms: _203  and  _206
REMARK   72  A    between atoms: _209  and  _211
REMARK   73  A    between atoms: _211  and  _212
REMARK   74  A    between atoms: _211  and  _214
REMARK   75  A    between atoms: _214  and  _215
REMARK   76  A    between atoms: _220  and  _222
REMARK   77  A    between atoms: _222  and  _223
REMARK   78  A    between atoms: _222  and  _225
REMARK   79  A    between atoms: _225  and  _226
REMARK   80  A    between atoms: _232  and  _234
REMARK   81  A    between atoms: _234  and  _235
REMARK   82  A    between atoms: _234  and  _237
REMARK   83  A    between atoms: _240  and  _242
REMARK   84  A    between atoms: _242  and  _243
REMARK   85  A    between atoms: _242  and  _245
REMARK   86  A    between atoms: _245  and  _246
REMARK   87  A    between atoms: _249  and  _251
REMARK   88  A    between atoms: _251  and  _252
REMARK   89  A    between atoms: _255  and  _257
REMARK   90  A    between atoms: _257  and  _258
REMARK   91  A    between atoms: _257  and  _260
REMARK   92  A    between atoms: _263  and  _265
REMARK   93  A    between atoms: _265  and  _266
REMARK   94  A    between atoms: _265  and  _268
REMARK   95  A    between atoms: _268  and  _269
REMARK   96  A    between atoms: _272  and  _274
REMARK   97  A    between atoms: _274  and  _275
REMARK   98  A    between atoms: _277  and  _279
REMARK   99  A    between atoms: _279  and  _280
REMARK  100  A    between atoms: _279  and  _282
REMARK  101  A    between atoms: _282  and  _283
REMARK  102  A    between atoms: _285  and  _287
REMARK  103  A    between atoms: _287  and  _288
REMARK  104  A    between atoms: _287  and  _290
REMARK  105  A    between atoms: _290  and  _291
REMARK  106  A    between atoms: _294  and  _296
REMARK  107  A    between atoms: _296  and  _297
REMARK  108  A    between atoms: _296  and  _299
REMARK  109  A    between atoms: _299  and  _300
REMARK  110  A    between atoms: _303  and  _305
REMARK  111  A    between atoms: _305  and  _306
REMARK  112  A    between atoms: _305  and  _308
REMARK  113  A    between atoms: _308  and  _309
REMARK  114  A    between atoms: _313  and  _314
REMARK  115  A    between atoms: _320  and  _321
REMARK  116  A    between atoms: _326  and  _328
REMARK  117  A    between atoms: _328  and  _329
REMARK  118  A    between atoms: _328  and  _331
REMARK  119  A    between atoms: _331  and  _332
REMARK  120  A    between atoms: _335  and  _337
REMARK  121  A    between atoms: _337  and  _338
REMARK  122  A    between atoms: _337  and  _340
REMARK  123  A    between atoms: _340  and  _341
REMARK  124  A    between atoms: _344  and  _346
REMARK  125  A    between atoms: _346  and  _347
REMARK  126  A    between atoms: _346  and  _349
REMARK  127  A    between atoms: _351  and  _353
REMARK  128  A    between atoms: _353  and  _354
REMARK  129  A    between atoms: _353  and  _356
REMARK  130  A    between atoms: _359  and  _361
REMARK  131  A    between atoms: _361  and  _362
REMARK  132  A    between atoms: _361  and  _364
REMARK  133  A    between atoms: _364  and  _365
REMARK  134  A    between atoms: _375  and  _377
REMARK  135  A    between atoms: _377  and  _378
REMARK  136  A    between atoms: _377  and  _380
REMARK  137  A    between atoms: _380  and  _381
REMARK  138  A    between atoms: _386  and  _388
REMARK  139  A    between atoms: _388  and  _389
REMARK  140  A    between atoms: _388  and  _391
REMARK  141  A    between atoms: _391  and  _392
REMARK  142  A    between atoms: _392  and  _393
REMARK  143  A    between atoms: _393  and  _394
REMARK                            x       y       z     vdW  Elec       q    Type
REMARK                         _______ _______ _______ _____ _____    ______ ____
ROOT
ATOM      1  O   HOH     1      16.713   0.277  13.396  0.00  0.00    +0.000 OA
ENDROOT
TORSDOF 0
REMARK  Name = ../refined-set-2016/3s76/3s76_pocket.pdb
REMARK  143 active torsions:
REMARK  status: ('A' for Active; 'I' for Inactive)
REMARK    1  A    between atoms: _1  and  _3
REMARK    2  A    between atoms: _3  and  _4
REMARK    3  A    between atoms: _3  and  _6
REMARK    4  A    between atoms: _6  and  _7
REMARK    5  A    between atoms: _17  and  _19
REMARK    6  A    between atoms: _19  and  _20
REMARK    7  A    between atoms: _19  and  _22
REMARK    8  A    between atoms: _22  and  _23
REMARK    9  A    between atoms: _28  and  _29
REMARK   10  A    between atoms: _31  and  _33
REMARK   11  A    between atoms: _33  and  _34
REMARK   12  A    between atoms: _33  and  _36
REMARK   13  A    between atoms: _36  and  _37
REMARK   14  A    between atoms: _40  and  _41
REMARK   15  A    between atoms: _46  and  _48
REMARK   16  A    between atoms: _48  and  _49
REMARK   17  A    between atoms: _48  and  _51
REMARK   18  A    between atoms: _51  and  _52
REMARK   19  A    between atoms: _57  and  _59
REMARK   20  A    between atoms: _59  and  _60
REMARK   21  A    between atoms: _63  and  _65
REMARK   22  A    between atoms: _65  and  _66
REMARK   23  A    between atoms: _65  and  _68
REMARK   24  A    between atoms: _68  and  _69
REMARK   25  A    between atoms: _74  and  _76
REMARK   26  A    between atoms: _76  and  _77
REMARK   27  A    between atoms: _76  and  _79
REMARK   28  A    between atoms: _79  and  _80
REMARK   29  A    between atoms: _83  and  _85
REMARK   30  A    between atoms: _85  and  _86
REMARK   31  A    between atoms: _85  and  _88
REMARK   32  A    between atoms: _88  and  _89
REMARK   33  A    between atoms: _89  and  _90
REMARK   34  A    between atoms: _95  and  _97
REMARK   35  A    between atoms: _97  and  _98
REMARK   36  A    between atoms: _97  and  _100
REMARK   37  A    between atoms: _100  and  _101
REMARK   38  A    between atoms: _107  and  _109
REMARK   39  A    between atoms: _120  and  _123
REMARK   40  A    between atoms: _123  and  _124
REMARK   41  A    between atoms: _132  and  _133
REMARK   42  A    between atoms: _141  and  _143
REMARK   43  A    between atoms: _143  and  _144
REMARK   44  A    between atoms: _143  and  _146
REMARK   45  A    between atoms: _146  and  _147
REMARK   46  A    between atoms: _147  and  _148
REMARK   47  A    between atoms: _151  and  _153
REMARK   48  A    between atoms: _153  and  _154
REMARK   49  A    between atoms: _153  and  _156
REMARK   50  A    between atoms: _156  and  _157
REMARK   51  A    between atoms: _162  and  _164
REMARK   52  A    between atoms: _164  and  _165
REMARK   53  A    between atoms: _164  and  _167
REMARK   54  A    between atoms: _167  and  _168
REMARK   55  A    between atoms: _168  and  _169
REMARK   56  A    between atoms: _172  and  _174
REMARK   57  A    between atoms: _174  and  _175
REMARK   58  A    between atoms: _174  and  _177
REMARK   59  A    between atoms: _177  and  _178
REMARK   60  A    between atoms: _181  and  _183
REMARK   61  A    between atoms: _183  and  _184
REMARK   62  A    between atoms: _183  and  _186
REMARK   63  A    between atoms: _186  and  _187
REMARK   64  A    between atoms: _188  and  ZN_403
REMARK   65  A    between atoms: _192  and  _194
REMARK   66  A    between atoms: _194  and  _195
REMARK   67  A    between atoms: _194  and  _197
REMARK   68  A    between atoms: _197  and  _198
REMARK   69  A    between atoms: _201  and  _203
REMARK   70  A    between atoms: _203  and  _204
REMARK   71  A    between atoms: _203  and  _206
REMARK   72  A    between atoms: _209  and  _211
REMARK   73  A    between atoms: _211  and  _212
REMARK   74  A    between atoms: _211  and  _214
REMARK   75  A    between atoms: _214  and  _215
REMARK   76  A    between atoms: _220  and  _222
REMARK   77  A    between atoms: _222  and  _223
REMARK   78  A    between atoms: _222  and  _225
REMARK   79  A    between atoms: _225  and  _226
REMARK   80  A    between atoms: _232  and  _234
REMARK   81  A    between atoms: _234  and  _235
REMARK   82  A    between atoms: _234  and  _237
REMARK   83  A    between atoms: _240  and  _242
REMARK   84  A    between atoms: _242  and  _243
REMARK   85  A    between atoms: _242  and  _245
REMARK   86  A    between atoms: _245  and  _246
REMARK   87  A    between atoms: _249  and  _251
REMARK   88  A    between atoms: _251  and  _252
REMARK   89  A    between atoms: _255  and  _257
REMARK   90  A    between atoms: _257  and  _258
REMARK   91  A    between atoms: _257  and  _260
REMARK   92  A    between atoms: _263  and  _265
REMARK   93  A    between atoms: _265  and  _266
REMARK   94  A    between atoms: _265  and  _268
REMARK   95  A    between atoms: _268  and  _269
REMARK   96  A    between atoms: _272  and  _274
REMARK   97  A    between atoms: _274  and  _275
REMARK   98  A    between atoms: _277  and  _279
REMARK   99  A    between atoms: _279  and  _280
REMARK  100  A    between atoms: _279  and  _282
REMARK  101  A    between atoms: _282  and  _283
REMARK  102  A    between atoms: _285  and  _287
REMARK  103  A    between atoms: _287  and  _288
REMARK  104  A    between atoms: _287  and  _290
REMARK  105  A    between atoms: _290  and  _291
REMARK  106  A    between atoms: _294  and  _296
REMARK  107  A    between atoms: _296  and  _297
REMARK  108  A    between atoms: _296  and  _299
REMARK  109  A    between atoms: _299  and  _300
REMARK  110  A    between atoms: _303  and  _305
REMARK  111  A    between atoms: _305  and  _306
REMARK  112  A    between atoms: _305  and  _308
REMARK  113  A    between atoms: _308  and  _309
REMARK  114  A    between atoms: _313  and  _314
REMARK  115  A    between atoms: _320  and  _321
REMARK  116  A    between atoms: _326  and  _328
REMARK  117  A    between atoms: _328  and  _329
REMARK  118  A    between atoms: _328  and  _331
REMARK  119  A    between atoms: _331  and  _332
REMARK  120  A    between atoms: _335  and  _337
REMARK  121  A    between atoms: _337  and  _338
REMARK  122  A    between atoms: _337  and  _340
REMARK  123  A    between atoms: _340  and  _341
REMARK  124  A    between atoms: _344  and  _346
REMARK  125  A    between atoms: _346  and  _347
REMARK  126  A    between atoms: _346  and  _349
REMARK  127  A    between atoms: _351  and  _353
REMARK  128  A    between atoms: _353  and  _354
REMARK  129  A    between atoms: _353  and  _356
REMARK  130  A    between atoms: _359  and  _361
REMARK  131  A    between atoms: _361  and  _362
REMARK  132  A    between atoms: _361  and  _364
REMARK  133  A    between atoms: _364  and  _365
REMARK  134  A    between atoms: _375  and  _377
REMARK  135  A    between atoms: _377  and  _378
REMARK  136  A    between atoms: _377  and  _380
REMARK  137  A    between atoms: _380  and  _381
REMARK  138  A    between atoms: _386  and  _388
REMARK  139  A    between atoms: _388  and  _389
REMARK  140  A    between atoms: _388  and  _391
REMARK  141  A    between atoms: _391  and  _392
REMARK  142  A    between atoms: _392  and  _393
REMARK  143  A    between atoms: _393  and  _394
REMARK                            x       y       z     vdW  Elec       q    Type
REMARK                         _______ _______ _______ _____ _____    ______ ____
ROOT
ATOM      1  O   HOH     1      15.226   7.204  11.182  0.00  0.00    +0.000 OA
ENDROOT
TORSDOF 0
REMARK  Name = ../refined-set-2016/3s76/3s76_pocket.pdb
REMARK  143 active torsions:
REMARK  status: ('A' for Active; 'I' for Inactive)
REMARK    1  A    between atoms: _1  and  _3
REMARK    2  A    between atoms: _3  and  _4
REMARK    3  A    between atoms: _3  and  _6
REMARK    4  A    between atoms: _6  and  _7
REMARK    5  A    between atoms: _17  and  _19
REMARK    6  A    between atoms: _19  and  _20
REMARK    7  A    between atoms: _19  and  _22
REMARK    8  A    between atoms: _22  and  _23
REMARK    9  A    between atoms: _28  and  _29
REMARK   10  A    between atoms: _31  and  _33
REMARK   11  A    between atoms: _33  and  _34
REMARK   12  A    between atoms: _33  and  _36
REMARK   13  A    between atoms: _36  and  _37
REMARK   14  A    between atoms: _40  and  _41
REMARK   15  A    between atoms: _46  and  _48
REMARK   16  A    between atoms: _48  and  _49
REMARK   17  A    between atoms: _48  and  _51
REMARK   18  A    between atoms: _51  and  _52
REMARK   19  A    between atoms: _57  and  _59
REMARK   20  A    between atoms: _59  and  _60
REMARK   21  A    between atoms: _63  and  _65
REMARK   22  A    between atoms: _65  and  _66
REMARK   23  A    between atoms: _65  and  _68
REMARK   24  A    between atoms: _68  and  _69
REMARK   25  A    between atoms: _74  and  _76
REMARK   26  A    between atoms: _76  and  _77
REMARK   27  A    between atoms: _76  and  _79
REMARK   28  A    between atoms: _79  and  _80
REMARK   29  A    between atoms: _83  and  _85
REMARK   30  A    between atoms: _85  and  _86
REMARK   31  A    between atoms: _85  and  _88
REMARK   32  A    between atoms: _88  and  _89
REMARK   33  A    between atoms: _89  and  _90
REMARK   34  A    between atoms: _95  and  _97
REMARK   35  A    between atoms: _97  and  _98
REMARK   36  A    between atoms: _97  and  _100
REMARK   37  A    between atoms: _100  and  _101
REMARK   38  A    between atoms: _107  and  _109
REMARK   39  A    between atoms: _120  and  _123
REMARK   40  A    between atoms: _123  and  _124
REMARK   41  A    between atoms: _132  and  _133
REMARK   42  A    between atoms: _141  and  _143
REMARK   43  A    between atoms: _143  and  _144
REMARK   44  A    between atoms: _143  and  _146
REMARK   45  A    between atoms: _146  and  _147
REMARK   46  A    between atoms: _147  and  _148
REMARK   47  A    between atoms: _151  and  _153
REMARK   48  A    between atoms: _153  and  _154
REMARK   49  A    between atoms: _153  and  _156
REMARK   50  A    between atoms: _156  and  _157
REMARK   51  A    between atoms: _162  and  _164
REMARK   52  A    between atoms: _164  and  _165
REMARK   53  A    between atoms: _164  and  _167
REMARK   54  A    between atoms: _167  and  _168
REMARK   55  A    between atoms: _168  and  _169
REMARK   56  A    between atoms: _172  and  _174
REMARK   57  A    between atoms: _174  and  _175
REMARK   58  A    between atoms: _174  and  _177
REMARK   59  A    between atoms: _177  and  _178
REMARK   60  A    between atoms: _181  and  _183
REMARK   61  A    between atoms: _183  and  _184
REMARK   62  A    between atoms: _183  and  _186
REMARK   63  A    between atoms: _186  and  _187
REMARK   64  A    between atoms: _188  and  ZN_403
REMARK   65  A    between atoms: _192  and  _194
REMARK   66  A    between atoms: _194  and  _195
REMARK   67  A    between atoms: _194  and  _197
REMARK   68  A    between atoms: _197  and  _198
REMARK   69  A    between atoms: _201  and  _203
REMARK   70  A    between atoms: _203  and  _204
REMARK   71  A    between atoms: _203  and  _206
REMARK   72  A    between atoms: _209  and  _211
REMARK   73  A    between atoms: _211  and  _212
REMARK   74  A    between atoms: _211  and  _214
REMARK   75  A    between atoms: _214  and  _215
REMARK   76  A    between atoms: _220  and  _222
REMARK   77  A    between atoms: _222  and  _223
REMARK   78  A    between atoms: _222  and  _225
REMARK   79  A    between atoms: _225  and  _226
REMARK   80  A    between atoms: _232  and  _234
REMARK   81  A    between atoms: _234  and  _235
REMARK   82  A    between atoms: _234  and  _237
REMARK   83  A    between atoms: _240  and  _242
REMARK   84  A    between atoms: _242  and  _243
REMARK   85  A    between atoms: _242  and  _245
REMARK   86  A    between atoms: _245  and  _246
REMARK   87  A    between atoms: _249  and  _251
REMARK   88  A    between atoms: _251  and  _252
REMARK   89  A    between atoms: _255  and  _257
REMARK   90  A    between atoms: _257  and  _258
REMARK   91  A    between atoms: _257  and  _260
REMARK   92  A    between atoms: _263  and  _265
REMARK   93  A    between atoms: _265  and  _266
REMARK   94  A    between atoms: _265  and  _268
REMARK   95  A    between atoms: _268  and  _269
REMARK   96  A    between atoms: _272  and  _274
REMARK   97  A    between atoms: _274  and  _275
REMARK   98  A    between atoms: _277  and  _279
REMARK   99  A    between atoms: _279  and  _280
REMARK  100  A    between atoms: _279  and  _282
REMARK  101  A    between atoms: _282  and  _283
REMARK  102  A    between atoms: _285  and  _287
REMARK  103  A    between atoms: _287  and  _288
REMARK  104  A    between atoms: _287  and  _290
REMARK  105  A    between atoms: _290  and  _291
REMARK  106  A    between atoms: _294  and  _296
REMARK  107  A    between atoms: _296  and  _297
REMARK  108  A    between atoms: _296  and  _299
REMARK  109  A    between atoms: _299  and  _300
REMARK  110  A    between atoms: _303  and  _305
REMARK  111  A    between atoms: _305  and  _306
REMARK  112  A    between atoms: _305  and  _308
REMARK  113  A    between atoms: _308  and  _309
REMARK  114  A    between atoms: _313  and  _314
REMARK  115  A    between atoms: _320  and  _321
REMARK  116  A    between atoms: _326  and  _328
REMARK  117  A    between atoms: _328  and  _329
REMARK  118  A    between atoms: _328  and  _331
REMARK  119  A    between atoms: _331  and  _332
REMARK  120  A    between atoms: _335  and  _337
REMARK  121  A    between atoms: _337  and  _338
REMARK  122  A    between atoms: _337  and  _340
REMARK  123  A    between atoms: _340  and  _341
REMARK  124  A    between atoms: _344  and  _346
REMARK  125  A    between atoms: _346  and  _347
REMARK  126  A    between atoms: _346  and  _349
REMARK  127  A    between atoms: _351  and  _353
REMARK  128  A    between atoms: _353  and  _354
REMARK  129  A    between atoms: _353  and  _356
REMARK  130  A    between atoms: _359  and  _361
REMARK  131  A    between atoms: _361  and  _362
REMARK  132  A    between atoms: _361  and  _364
REMARK  133  A    between atoms: _364  and  _365
REMARK  134  A    between atoms: _375  and  _377
REMARK  135  A    between atoms: _377  and  _378
REMARK  136  A    between atoms: _377  and  _380
REMARK  137  A    between atoms: _380  and  _381
REMARK  138  A    between atoms: _386  and  _388
REMARK  139  A    between atoms: _388  and  _389
REMARK  140  A    between atoms: _388  and  _391
REMARK  141  A    between atoms: _391  and  _392
REMARK  142  A    between atoms: _392  and  _393
REMARK  143  A    between atoms: _393  and  _394
REMARK                            x       y       z     vdW  Elec       q    Type
REMARK                         _______ _______ _______ _____ _____    ______ ____
ROOT
ATOM      1  O   HOH     1      19.700  -3.905  15.992  0.00  0.00    +0.000 OA
ENDROOT
TORSDOF 0
REMARK  Name = ../refined-set-2016/3s76/3s76_pocket.pdb
REMARK  143 active torsions:
REMARK  status: ('A' for Active; 'I' for Inactive)
REMARK    1  A    between atoms: _1  and  _3
REMARK    2  A    between atoms: _3  and  _4
REMARK    3  A    between atoms: _3  and  _6
REMARK    4  A    between atoms: _6  and  _7
REMARK    5  A    between atoms: _17  and  _19
REMARK    6  A    between atoms: _19  and  _20
REMARK    7  A    between atoms: _19  and  _22
REMARK    8  A    between atoms: _22  and  _23
REMARK    9  A    between atoms: _28  and  _29
REMARK   10  A    between atoms: _31  and  _33
REMARK   11  A    between atoms: _33  and  _34
REMARK   12  A    between atoms: _33  and  _36
REMARK   13  A    between atoms: _36  and  _37
REMARK   14  A    between atoms: _40  and  _41
REMARK   15  A    between atoms: _46  and  _48
REMARK   16  A    between atoms: _48  and  _49
REMARK   17  A    between atoms: _48  and  _51
REMARK   18  A    between atoms: _51  and  _52
REMARK   19  A    between atoms: _57  and  _59
REMARK   20  A    between atoms: _59  and  _60
REMARK   21  A    between atoms: _63  and  _65
REMARK   22  A    between atoms: _65  and  _66
REMARK   23  A    between atoms: _65  and  _68
REMARK   24  A    between atoms: _68  and  _69
REMARK   25  A    between atoms: _74  and  _76
REMARK   26  A    between atoms: _76  and  _77
REMARK   27  A    between atoms: _76  and  _79
REMARK   28  A    between atoms: _79  and  _80
REMARK   29  A    between atoms: _83  and  _85
REMARK   30  A    between atoms: _85  and  _86
REMARK   31  A    between atoms: _85  and  _88
REMARK   32  A    between atoms: _88  and  _89
REMARK   33  A    between atoms: _89  and  _90
REMARK   34  A    between atoms: _95  and  _97
REMARK   35  A    between atoms: _97  and  _98
REMARK   36  A    between atoms: _97  and  _100
REMARK   37  A    between atoms: _100  and  _101
REMARK   38  A    between atoms: _107  and  _109
REMARK   39  A    between atoms: _120  and  _123
REMARK   40  A    between atoms: _123  and  _124
REMARK   41  A    between atoms: _132  and  _133
REMARK   42  A    between atoms: _141  and  _143
REMARK   43  A    between atoms: _143  and  _144
REMARK   44  A    between atoms: _143  and  _146
REMARK   45  A    between atoms: _146  and  _147
REMARK   46  A    between atoms: _147  and  _148
REMARK   47  A    between atoms: _151  and  _153
REMARK   48  A    between atoms: _153  and  _154
REMARK   49  A    between atoms: _153  and  _156
REMARK   50  A    between atoms: _156  and  _157
REMARK   51  A    between atoms: _162  and  _164
REMARK   52  A    between atoms: _164  and  _165
REMARK   53  A    between atoms: _164  and  _167
REMARK   54  A    between atoms: _167  and  _168
REMARK   55  A    between atoms: _168  and  _169
REMARK   56  A    between atoms: _172  and  _174
REMARK   57  A    between atoms: _174  and  _175
REMARK   58  A    between atoms: _174  and  _177
REMARK   59  A    between atoms: _177  and  _178
REMARK   60  A    between atoms: _181  and  _183
REMARK   61  A    between atoms: _183  and  _184
REMARK   62  A    between atoms: _183  and  _186
REMARK   63  A    between atoms: _186  and  _187
REMARK   64  A    between atoms: _188  and  ZN_403
REMARK   65  A    between atoms: _192  and  _194
REMARK   66  A    between atoms: _194  and  _195
REMARK   67  A    between atoms: _194  and  _197
REMARK   68  A    between atoms: _197  and  _198
REMARK   69  A    between atoms: _201  and  _203
REMARK   70  A    between atoms: _203  and  _204
REMARK   71  A    between atoms: _203  and  _206
REMARK   72  A    between atoms: _209  and  _211
REMARK   73  A    between atoms: _211  and  _212
REMARK   74  A    between atoms: _211  and  _214
REMARK   75  A    between atoms: _214  and  _215
REMARK   76  A    between atoms: _220  and  _222
REMARK   77  A    between atoms: _222  and  _223
REMARK   78  A    between atoms: _222  and  _225
REMARK   79  A    between atoms: _225  and  _226
REMARK   80  A    between atoms: _232  and  _234
REMARK   81  A    between atoms: _234  and  _235
REMARK   82  A    between atoms: _234  and  _237
REMARK   83  A    between atoms: _240  and  _242
REMARK   84  A    between atoms: _242  and  _243
REMARK   85  A    between atoms: _242  and  _245
REMARK   86  A    between atoms: _245  and  _246
REMARK   87  A    between atoms: _249  and  _251
REMARK   88  A    between atoms: _251  and  _252
REMARK   89  A    between atoms: _255  and  _257
REMARK   90  A    between atoms: _257  and  _258
REMARK   91  A    between atoms: _257  and  _260
REMARK   92  A    between atoms: _263  and  _265
REMARK   93  A    between atoms: _265  and  _266
REMARK   94  A    between atoms: _265  and  _268
REMARK   95  A    between atoms: _268  and  _269
REMARK   96  A    between atoms: _272  and  _274
REMARK   97  A    between atoms: _274  and  _275
REMARK   98  A    between atoms: _277  and  _279
REMARK   99  A    between atoms: _279  and  _280
REMARK  100  A    between atoms: _279  and  _282
REMARK  101  A    between atoms: _282  and  _283
REMARK  102  A    between atoms: _285  and  _287
REMARK  103  A    between atoms: _287  and  _288
REMARK  104  A    between atoms: _287  and  _290
REMARK  105  A    between atoms: _290  and  _291
REMARK  106  A    between atoms: _294  and  _296
REMARK  107  A    between atoms: _296  and  _297
REMARK  108  A    between atoms: _296  and  _299
REMARK  109  A    between atoms: _299  and  _300
REMARK  110  A    between atoms: _303  and  _305
REMARK  111  A    between atoms: _305  and  _306
REMARK  112  A    between atoms: _305  and  _308
REMARK  113  A    between atoms: _308  and  _309
REMARK  114  A    between atoms: _313  and  _314
REMARK  115  A    between atoms: _320  and  _321
REMARK  116  A    between atoms: _326  and  _328
REMARK  117  A    between atoms: _328  and  _329
REMARK  118  A    between atoms: _328  and  _331
REMARK  119  A    between atoms: _331  and  _332
REMARK  120  A    between atoms: _335  and  _337
REMARK  121  A    between atoms: _337  and  _338
REMARK  122  A    between atoms: _337  and  _340
REMARK  123  A    between atoms: _340  and  _341
REMARK  124  A    between atoms: _344  and  _346
REMARK  125  A    between atoms: _346  and  _347
REMARK  126  A    between atoms: _346  and  _349
REMARK  127  A    between atoms: _351  and  _353
REMARK  128  A    between atoms: _353  and  _354
REMARK  129  A    between atoms: _353  and  _356
REMARK  130  A    between atoms: _359  and  _361
REMARK  131  A    between atoms: _361  and  _362
REMARK  132  A    between atoms: _361  and  _364
REMARK  133  A    between atoms: _364  and  _365
REMARK  134  A    between atoms: _375  and  _377
REMARK  135  A    between atoms: _377  and  _378
REMARK  136  A    between atoms: _377  and  _380
REMARK  137  A    between atoms: _380  and  _381
REMARK  138  A    between atoms: _386  and  _388
REMARK  139  A    between atoms: _388  and  _389
REMARK  140  A    between atoms: _388  and  _391
REMARK  141  A    between atoms: _391  and  _392
REMARK  142  A    between atoms: _392  and  _393
REMARK  143  A    between atoms: _393  and  _394
REMARK                            x       y       z     vdW  Elec       q    Type
REMARK                         _______ _______ _______ _____ _____    ______ ____
ROOT
ATOM      1  O   HOH     1      13.033   7.647   8.292  0.00  0.00    +0.000 OA
ENDROOT
TORSDOF 0
REMARK  Name = ../refined-set-2016/3s76/3s76_pocket.pdb
REMARK  143 active torsions:
REMARK  status: ('A' for Active; 'I' for Inactive)
REMARK    1  A    between atoms: _1  and  _3
REMARK    2  A    between atoms: _3  and  _4
REMARK    3  A    between atoms: _3  and  _6
REMARK    4  A    between atoms: _6  and  _7
REMARK    5  A    between atoms: _17  and  _19
REMARK    6  A    between atoms: _19  and  _20
REMARK    7  A    between atoms: _19  and  _22
REMARK    8  A    between atoms: _22  and  _23
REMARK    9  A    between atoms: _28  and  _29
REMARK   10  A    between atoms: _31  and  _33
REMARK   11  A    between atoms: _33  and  _34
REMARK   12  A    between atoms: _33  and  _36
REMARK   13  A    between atoms: _36  and  _37
REMARK   14  A    between atoms: _40  and  _41
REMARK   15  A    between atoms: _46  and  _48
REMARK   16  A    between atoms: _48  and  _49
REMARK   17  A    between atoms: _48  and  _51
REMARK   18  A    between atoms: _51  and  _52
REMARK   19  A    between atoms: _57  and  _59
REMARK   20  A    between atoms: _59  and  _60
REMARK   21  A    between atoms: _63  and  _65
REMARK   22  A    between atoms: _65  and  _66
REMARK   23  A    between atoms: _65  and  _68
REMARK   24  A    between atoms: _68  and  _69
REMARK   25  A    between atoms: _74  and  _76
REMARK   26  A    between atoms: _76  and  _77
REMARK   27  A    between atoms: _76  and  _79
REMARK   28  A    between atoms: _79  and  _80
REMARK   29  A    between atoms: _83  and  _85
REMARK   30  A    between atoms: _85  and  _86
REMARK   31  A    between atoms: _85  and  _88
REMARK   32  A    between atoms: _88  and  _89
REMARK   33  A    between atoms: _89  and  _90
REMARK   34  A    between atoms: _95  and  _97
REMARK   35  A    between atoms: _97  and  _98
REMARK   36  A    between atoms: _97  and  _100
REMARK   37  A    between atoms: _100  and  _101
REMARK   38  A    between atoms: _107  and  _109
REMARK   39  A    between atoms: _120  and  _123
REMARK   40  A    between atoms: _123  and  _124
REMARK   41  A    between atoms: _132  and  _133
REMARK   42  A    between atoms: _141  and  _143
REMARK   43  A    between atoms: _143  and  _144
REMARK   44  A    between atoms: _143  and  _146
REMARK   45  A    between atoms: _146  and  _147
REMARK   46  A    between atoms: _147  and  _148
REMARK   47  A    between atoms: _151  and  _153
REMARK   48  A    between atoms: _153  and  _154
REMARK   49  A    between atoms: _153  and  _156
REMARK   50  A    between atoms: _156  and  _157
REMARK   51  A    between atoms: _162  and  _164
REMARK   52  A    between atoms: _164  and  _165
REMARK   53  A    between atoms: _164  and  _167
REMARK   54  A    between atoms: _167  and  _168
REMARK   55  A    between atoms: _168  and  _169
REMARK   56  A    between atoms: _172  and  _174
REMARK   57  A    between atoms: _174  and  _175
REMARK   58  A    between atoms: _174  and  _177
REMARK   59  A    between atoms: _177  and  _178
REMARK   60  A    between atoms: _181  and  _183
REMARK   61  A    between atoms: _183  and  _184
REMARK   62  A    between atoms: _183  and  _186
REMARK   63  A    between atoms: _186  and  _187
REMARK   64  A    between atoms: _188  and  ZN_403
REMARK   65  A    between atoms: _192  and  _194
REMARK   66  A    between atoms: _194  and  _195
REMARK   67  A    between atoms: _194  and  _197
REMARK   68  A    between atoms: _197  and  _198
REMARK   69  A    between atoms: _201  and  _203
REMARK   70  A    between atoms: _203  and  _204
REMARK   71  A    between atoms: _203  and  _206
REMARK   72  A    between atoms: _209  and  _211
REMARK   73  A    between atoms: _211  and  _212
REMARK   74  A    between atoms: _211  and  _214
REMARK   75  A    between atoms: _214  and  _215
REMARK   76  A    between atoms: _220  and  _222
REMARK   77  A    between atoms: _222  and  _223
REMARK   78  A    between atoms: _222  and  _225
REMARK   79  A    between atoms: _225  and  _226
REMARK   80  A    between atoms: _232  and  _234
REMARK   81  A    between atoms: _234  and  _235
REMARK   82  A    between atoms: _234  and  _237
REMARK   83  A    between atoms: _240  and  _242
REMARK   84  A    between atoms: _242  and  _243
REMARK   85  A    between atoms: _242  and  _245
REMARK   86  A    between atoms: _245  and  _246
REMARK   87  A    between atoms: _249  and  _251
REMARK   88  A    between atoms: _251  and  _252
REMARK   89  A    between atoms: _255  and  _257
REMARK   90  A    between atoms: _257  and  _258
REMARK   91  A    between atoms: _257  and  _260
REMARK   92  A    between atoms: _263  and  _265
REMARK   93  A    between atoms: _265  and  _266
REMARK   94  A    between atoms: _265  and  _268
REMARK   95  A    between atoms: _268  and  _269
REMARK   96  A    between atoms: _272  and  _274
REMARK   97  A    between atoms: _274  and  _275
REMARK   98  A    between atoms: _277  and  _279
REMARK   99  A    between atoms: _279  and  _280
REMARK  100  A    between atoms: _279  and  _282
REMARK  101  A    between atoms: _282  and  _283
REMARK  102  A    between atoms: _285  and  _287
REMARK  103  A    between atoms: _287  and  _288
REMARK  104  A    between atoms: _287  and  _290
REMARK  105  A    between atoms: _290  and  _291
REMARK  106  A    between atoms: _294  and  _296
REMARK  107  A    between atoms: _296  and  _297
REMARK  108  A    between atoms: _296  and  _299
REMARK  109  A    between atoms: _299  and  _300
REMARK  110  A    between atoms: _303  and  _305
REMARK  111  A    between atoms: _305  and  _306
REMARK  112  A    between atoms: _305  and  _308
REMARK  113  A    between atoms: _308  and  _309
REMARK  114  A    between atoms: _313  and  _314
REMARK  115  A    between atoms: _320  and  _321
REMARK  116  A    between atoms: _326  and  _328
REMARK  117  A    between atoms: _328  and  _329
REMARK  118  A    between atoms: _328  and  _331
REMARK  119  A    between atoms: _331  and  _332
REMARK  120  A    between atoms: _335  and  _337
REMARK  121  A    between atoms: _337  and  _338
REMARK  122  A    between atoms: _337  and  _340
REMARK  123  A    between atoms: _340  and  _341
REMARK  124  A    between atoms: _344  and  _346
REMARK  125  A    between atoms: _346  and  _347
REMARK  126  A    between atoms: _346  and  _349
REMARK  127  A    between atoms: _351  and  _353
REMARK  128  A    between atoms: _353  and  _354
REMARK  129  A    between atoms: _353  and  _356
REMARK  130  A    between atoms: _359  and  _361
REMARK  131  A    between atoms: _361  and  _362
REMARK  132  A    between atoms: _361  and  _364
REMARK  133  A    between atoms: _364  and  _365
REMARK  134  A    between atoms: _375  and  _377
REMARK  135  A    between atoms: _377  and  _378
REMARK  136  A    between atoms: _377  and  _380
REMARK  137  A    between atoms: _380  and  _381
REMARK  138  A    between atoms: _386  and  _388
REMARK  139  A    between atoms: _388  and  _389
REMARK  140  A    between atoms: _388  and  _391
REMARK  141  A    between atoms: _391  and  _392
REMARK  142  A    between atoms: _392  and  _393
REMARK  143  A    between atoms: _393  and  _394
REMARK                            x       y       z     vdW  Elec       q    Type
REMARK                         _______ _______ _______ _____ _____    ______ ____
ROOT
ATOM      1  O   HOH     1      18.366  -2.791  11.652  0.00  0.00    +0.000 OA
ENDROOT
TORSDOF 0
REMARK  Name = ../refined-set-2016/3s76/3s76_pocket.pdb
REMARK  143 active torsions:
REMARK  status: ('A' for Active; 'I' for Inactive)
REMARK    1  A    between atoms: _1  and  _3
REMARK    2  A    between atoms: _3  and  _4
REMARK    3  A    between atoms: _3  and  _6
REMARK    4  A    between atoms: _6  and  _7
REMARK    5  A    between atoms: _17  and  _19
REMARK    6  A    between atoms: _19  and  _20
REMARK    7  A    between atoms: _19  and  _22
REMARK    8  A    between atoms: _22  and  _23
REMARK    9  A    between atoms: _28  and  _29
REMARK   10  A    between atoms: _31  and  _33
REMARK   11  A    between atoms: _33  and  _34
REMARK   12  A    between atoms: _33  and  _36
REMARK   13  A    between atoms: _36  and  _37
REMARK   14  A    between atoms: _40  and  _41
REMARK   15  A    between atoms: _46  and  _48
REMARK   16  A    between atoms: _48  and  _49
REMARK   17  A    between atoms: _48  and  _51
REMARK   18  A    between atoms: _51  and  _52
REMARK   19  A    between atoms: _57  and  _59
REMARK   20  A    between atoms: _59  and  _60
REMARK   21  A    between atoms: _63  and  _65
REMARK   22  A    between atoms: _65  and  _66
REMARK   23  A    between atoms: _65  and  _68
REMARK   24  A    between atoms: _68  and  _69
REMARK   25  A    between atoms: _74  and  _76
REMARK   26  A    between atoms: _76  and  _77
REMARK   27  A    between atoms: _76  and  _79
REMARK   28  A    between atoms: _79  and  _80
REMARK   29  A    between atoms: _83  and  _85
REMARK   30  A    between atoms: _85  and  _86
REMARK   31  A    between atoms: _85  and  _88
REMARK   32  A    between atoms: _88  and  _89
REMARK   33  A    between atoms: _89  and  _90
REMARK   34  A    between atoms: _95  and  _97
REMARK   35  A    between atoms: _97  and  _98
REMARK   36  A    between atoms: _97  and  _100
REMARK   37  A    between atoms: _100  and  _101
REMARK   38  A    between atoms: _107  and  _109
REMARK   39  A    between atoms: _120  and  _123
REMARK   40  A    between atoms: _123  and  _124
REMARK   41  A    between atoms: _132  and  _133
REMARK   42  A    between atoms: _141  and  _143
REMARK   43  A    between atoms: _143  and  _144
REMARK   44  A    between atoms: _143  and  _146
REMARK   45  A    between atoms: _146  and  _147
REMARK   46  A    between atoms: _147  and  _148
REMARK   47  A    between atoms: _151  and  _153
REMARK   48  A    between atoms: _153  and  _154
REMARK   49  A    between atoms: _153  and  _156
REMARK   50  A    between atoms: _156  and  _157
REMARK   51  A    between atoms: _162  and  _164
REMARK   52  A    between atoms: _164  and  _165
REMARK   53  A    between atoms: _164  and  _167
REMARK   54  A    between atoms: _167  and  _168
REMARK   55  A    between atoms: _168  and  _169
REMARK   56  A    between atoms: _172  and  _174
REMARK   57  A    between atoms: _174  and  _175
REMARK   58  A    between atoms: _174  and  _177
REMARK   59  A    between atoms: _177  and  _178
REMARK   60  A    between atoms: _181  and  _183
REMARK   61  A    between atoms: _183  and  _184
REMARK   62  A    between atoms: _183  and  _186
REMARK   63  A    between atoms: _186  and  _187
REMARK   64  A    between atoms: _188  and  ZN_403
REMARK   65  A    between atoms: _192  and  _194
REMARK   66  A    between atoms: _194  and  _195
REMARK   67  A    between atoms: _194  and  _197
REMARK   68  A    between atoms: _197  and  _198
REMARK   69  A    between atoms: _201  and  _203
REMARK   70  A    between atoms: _203  and  _204
REMARK   71  A    between atoms: _203  and  _206
REMARK   72  A    between atoms: _209  and  _211
REMARK   73  A    between atoms: _211  and  _212
REMARK   74  A    between atoms: _211  and  _214
REMARK   75  A    between atoms: _214  and  _215
REMARK   76  A    between atoms: _220  and  _222
REMARK   77  A    between atoms: _222  and  _223
REMARK   78  A    between atoms: _222  and  _225
REMARK   79  A    between atoms: _225  and  _226
REMARK   80  A    between atoms: _232  and  _234
REMARK   81  A    between atoms: _234  and  _235
REMARK   82  A    between atoms: _234  and  _237
REMARK   83  A    between atoms: _240  and  _242
REMARK   84  A    between atoms: _242  and  _243
REMARK   85  A    between atoms: _242  and  _245
REMARK   86  A    between atoms: _245  and  _246
REMARK   87  A    between atoms: _249  and  _251
REMARK   88  A    between atoms: _251  and  _252
REMARK   89  A    between atoms: _255  and  _257
REMARK   90  A    between atoms: _257  and  _258
REMARK   91  A    between atoms: _257  and  _260
REMARK   92  A    between atoms: _263  and  _265
REMARK   93  A    between atoms: _265  and  _266
REMARK   94  A    between atoms: _265  and  _268
REMARK   95  A    between atoms: _268  and  _269
REMARK   96  A    between atoms: _272  and  _274
REMARK   97  A    between atoms: _274  and  _275
REMARK   98  A    between atoms: _277  and  _279
REMARK   99  A    between atoms: _279  and  _280
REMARK  100  A    between atoms: _279  and  _282
REMARK  101  A    between atoms: _282  and  _283
REMARK  102  A    between atoms: _285  and  _287
REMARK  103  A    between atoms: _287  and  _288
REMARK  104  A    between atoms: _287  and  _290
REMARK  105  A    between atoms: _290  and  _291
REMARK  106  A    between atoms: _294  and  _296
REMARK  107  A    between atoms: _296  and  _297
REMARK  108  A    between atoms: _296  and  _299
REMARK  109  A    between atoms: _299  and  _300
REMARK  110  A    between atoms: _303  and  _305
REMARK  111  A    between atoms: _305  and  _306
REMARK  112  A    between atoms: _305  and  _308
REMARK  113  A    between atoms: _308  and  _309
REMARK  114  A    between atoms: _313  and  _314
REMARK  115  A    between atoms: _320  and  _321
REMARK  116  A    between atoms: _326  and  _328
REMARK  117  A    between atoms: _328  and  _329
REMARK  118  A    between atoms: _328  and  _331
REMARK  119  A    between atoms: _331  and  _332
REMARK  120  A    between atoms: _335  and  _337
REMARK  121  A    between atoms: _337  and  _338
REMARK  122  A    between atoms: _337  and  _340
REMARK  123  A    between atoms: _340  and  _341
REMARK  124  A    between atoms: _344  and  _346
REMARK  125  A    between atoms: _346  and  _347
REMARK  126  A    between atoms: _346  and  _349
REMARK  127  A    between atoms: _351  and  _353
REMARK  128  A    between atoms: _353  and  _354
REMARK  129  A    between atoms: _353  and  _356
REMARK  130  A    between atoms: _359  and  _361
REMARK  131  A    between atoms: _361  and  _362
REMARK  132  A    between atoms: _361  and  _364
REMARK  133  A    between atoms: _364  and  _365
REMARK  134  A    between atoms: _375  and  _377
REMARK  135  A    between atoms: _377  and  _378
REMARK  136  A    between atoms: _377  and  _380
REMARK  137  A    between atoms: _380  and  _381
REMARK  138  A    between atoms: _386  and  _388
REMARK  139  A    between atoms: _388  and  _389
REMARK  140  A    between atoms: _388  and  _391
REMARK  141  A    between atoms: _391  and  _392
REMARK  142  A    between atoms: _392  and  _393
REMARK  143  A    between atoms: _393  and  _394
REMARK                            x       y       z     vdW  Elec       q    Type
REMARK                         _______ _______ _______ _____ _____    ______ ____
ROOT
ATOM      1  O   HOH     1      16.756   3.937  10.416  0.00  0.00    +0.000 OA
ENDROOT
TORSDOF 0
REMARK  Name = ../refined-set-2016/3s76/3s76_pocket.pdb
REMARK  143 active torsions:
REMARK  status: ('A' for Active; 'I' for Inactive)
REMARK    1  A    between atoms: _1  and  _3
REMARK    2  A    between atoms: _3  and  _4
REMARK    3  A    between atoms: _3  and  _6
REMARK    4  A    between atoms: _6  and  _7
REMARK    5  A    between atoms: _17  and  _19
REMARK    6  A    between atoms: _19  and  _20
REMARK    7  A    between atoms: _19  and  _22
REMARK    8  A    between atoms: _22  and  _23
REMARK    9  A    between atoms: _28  and  _29
REMARK   10  A    between atoms: _31  and  _33
REMARK   11  A    between atoms: _33  and  _34
REMARK   12  A    between atoms: _33  and  _36
REMARK   13  A    between atoms: _36  and  _37
REMARK   14  A    between atoms: _40  and  _41
REMARK   15  A    between atoms: _46  and  _48
REMARK   16  A    between atoms: _48  and  _49
REMARK   17  A    between atoms: _48  and  _51
REMARK   18  A    between atoms: _51  and  _52
REMARK   19  A    between atoms: _57  and  _59
REMARK   20  A    between atoms: _59  and  _60
REMARK   21  A    between atoms: _63  and  _65
REMARK   22  A    between atoms: _65  and  _66
REMARK   23  A    between atoms: _65  and  _68
REMARK   24  A    between atoms: _68  and  _69
REMARK   25  A    between atoms: _74  and  _76
REMARK   26  A    between atoms: _76  and  _77
REMARK   27  A    between atoms: _76  and  _79
REMARK   28  A    between atoms: _79  and  _80
REMARK   29  A    between atoms: _83  and  _85
REMARK   30  A    between atoms: _85  and  _86
REMARK   31  A    between atoms: _85  and  _88
REMARK   32  A    between atoms: _88  and  _89
REMARK   33  A    between atoms: _89  and  _90
REMARK   34  A    between atoms: _95  and  _97
REMARK   35  A    between atoms: _97  and  _98
REMARK   36  A    between atoms: _97  and  _100
REMARK   37  A    between atoms: _100  and  _101
REMARK   38  A    between atoms: _107  and  _109
REMARK   39  A    between atoms: _120  and  _123
REMARK   40  A    between atoms: _123  and  _124
REMARK   41  A    between atoms: _132  and  _133
REMARK   42  A    between atoms: _141  and  _143
REMARK   43  A    between atoms: _143  and  _144
REMARK   44  A    between atoms: _143  and  _146
REMARK   45  A    between atoms: _146  and  _147
REMARK   46  A    between atoms: _147  and  _148
REMARK   47  A    between atoms: _151  and  _153
REMARK   48  A    between atoms: _153  and  _154
REMARK   49  A    between atoms: _153  and  _156
REMARK   50  A    between atoms: _156  and  _157
REMARK   51  A    between atoms: _162  and  _164
REMARK   52  A    between atoms: _164  and  _165
REMARK   53  A    between atoms: _164  and  _167
REMARK   54  A    between atoms: _167  and  _168
REMARK   55  A    between atoms: _168  and  _169
REMARK   56  A    between atoms: _172  and  _174
REMARK   57  A    between atoms: _174  and  _175
REMARK   58  A    between atoms: _174  and  _177
REMARK   59  A    between atoms: _177  and  _178
REMARK   60  A    between atoms: _181  and  _183
REMARK   61  A    between atoms: _183  and  _184
REMARK   62  A    between atoms: _183  and  _186
REMARK   63  A    between atoms: _186  and  _187
REMARK   64  A    between atoms: _188  and  ZN_403
REMARK   65  A    between atoms: _192  and  _194
REMARK   66  A    between atoms: _194  and  _195
REMARK   67  A    between atoms: _194  and  _197
REMARK   68  A    between atoms: _197  and  _198
REMARK   69  A    between atoms: _201  and  _203
REMARK   70  A    between atoms: _203  and  _204
REMARK   71  A    between atoms: _203  and  _206
REMARK   72  A    between atoms: _209  and  _211
REMARK   73  A    between atoms: _211  and  _212
REMARK   74  A    between atoms: _211  and  _214
REMARK   75  A    between atoms: _214  and  _215
REMARK   76  A    between atoms: _220  and  _222
REMARK   77  A    between atoms: _222  and  _223
REMARK   78  A    between atoms: _222  and  _225
REMARK   79  A    between atoms: _225  and  _226
REMARK   80  A    between atoms: _232  and  _234
REMARK   81  A    between atoms: _234  and  _235
REMARK   82  A    between atoms: _234  and  _237
REMARK   83  A    between atoms: _240  and  _242
REMARK   84  A    between atoms: _242  and  _243
REMARK   85  A    between atoms: _242  and  _245
REMARK   86  A    between atoms: _245  and  _246
REMARK   87  A    between atoms: _249  and  _251
REMARK   88  A    between atoms: _251  and  _252
REMARK   89  A    between atoms: _255  and  _257
REMARK   90  A    between atoms: _257  and  _258
REMARK   91  A    between atoms: _257  and  _260
REMARK   92  A    between atoms: _263  and  _265
REMARK   93  A    between atoms: _265  and  _266
REMARK   94  A    between atoms: _265  and  _268
REMARK   95  A    between atoms: _268  and  _269
REMARK   96  A    between atoms: _272  and  _274
REMARK   97  A    between atoms: _274  and  _275
REMARK   98  A    between atoms: _277  and  _279
REMARK   99  A    between atoms: _279  and  _280
REMARK  100  A    between atoms: _279  and  _282
REMARK  101  A    between atoms: _282  and  _283
REMARK  102  A    between atoms: _285  and  _287
REMARK  103  A    between atoms: _287  and  _288
REMARK  104  A    between atoms: _287  and  _290
REMARK  105  A    between atoms: _290  and  _291
REMARK  106  A    between atoms: _294  and  _296
REMARK  107  A    between atoms: _296  and  _297
REMARK  108  A    between atoms: _296  and  _299
REMARK  109  A    between atoms: _299  and  _300
REMARK  110  A    between atoms: _303  and  _305
REMARK  111  A    between atoms: _305  and  _306
REMARK  112  A    between atoms: _305  and  _308
REMARK  113  A    between atoms: _308  and  _309
REMARK  114  A    between atoms: _313  and  _314
REMARK  115  A    between atoms: _320  and  _321
REMARK  116  A    between atoms: _326  and  _328
REMARK  117  A    between atoms: _328  and  _329
REMARK  118  A    between atoms: _328  and  _331
REMARK  119  A    between atoms: _331  and  _332
REMARK  120  A    between atoms: _335  and  _337
REMARK  121  A    between atoms: _337  and  _338
REMARK  122  A    between atoms: _337  and  _340
REMARK  123  A    between atoms: _340  and  _341
REMARK  124  A    between atoms: _344  and  _346
REMARK  125  A    between atoms: _346  and  _347
REMARK  126  A    between atoms: _346  and  _349
REMARK  127  A    between atoms: _351  and  _353
REMARK  128  A    between atoms: _353  and  _354
REMARK  129  A    between atoms: _353  and  _356
REMARK  130  A    between atoms: _359  and  _361
REMARK  131  A    between atoms: _361  and  _362
REMARK  132  A    between atoms: _361  and  _364
REMARK  133  A    between atoms: _364  and  _365
REMARK  134  A    between atoms: _375  and  _377
REMARK  135  A    between atoms: _377  and  _378
REMARK  136  A    between atoms: _377  and  _380
REMARK  137  A    between atoms: _380  and  _381
REMARK  138  A    between atoms: _386  and  _388
REMARK  139  A    between atoms: _388  and  _389
REMARK  140  A    between atoms: _388  and  _391
REMARK  141  A    between atoms: _391  and  _392
REMARK  142  A    between atoms: _392  and  _393
REMARK  143  A    between atoms: _393  and  _394
REMARK                            x       y       z     vdW  Elec       q    Type
REMARK                         _______ _______ _______ _____ _____    ______ ____
ROOT
ATOM      1  O   HOH     1      16.734  -4.762  11.317  0.00  0.00    +0.000 OA
ENDROOT
TORSDOF 0
REMARK  Name = ../refined-set-2016/3s76/3s76_pocket.pdb
REMARK  143 active torsions:
REMARK  status: ('A' for Active; 'I' for Inactive)
REMARK    1  A    between atoms: _1  and  _3
REMARK    2  A    between atoms: _3  and  _4
REMARK    3  A    between atoms: _3  and  _6
REMARK    4  A    between atoms: _6  and  _7
REMARK    5  A    between atoms: _17  and  _19
REMARK    6  A    between atoms: _19  and  _20
REMARK    7  A    between atoms: _19  and  _22
REMARK    8  A    between atoms: _22  and  _23
REMARK    9  A    between atoms: _28  and  _29
REMARK   10  A    between atoms: _31  and  _33
REMARK   11  A    between atoms: _33  and  _34
REMARK   12  A    between atoms: _33  and  _36
REMARK   13  A    between atoms: _36  and  _37
REMARK   14  A    between atoms: _40  and  _41
REMARK   15  A    between atoms: _46  and  _48
REMARK   16  A    between atoms: _48  and  _49
REMARK   17  A    between atoms: _48  and  _51
REMARK   18  A    between atoms: _51  and  _52
REMARK   19  A    between atoms: _57  and  _59
REMARK   20  A    between atoms: _59  and  _60
REMARK   21  A    between atoms: _63  and  _65
REMARK   22  A    between atoms: _65  and  _66
REMARK   23  A    between atoms: _65  and  _68
REMARK   24  A    between atoms: _68  and  _69
REMARK   25  A    between atoms: _74  and  _76
REMARK   26  A    between atoms: _76  and  _77
REMARK   27  A    between atoms: _76  and  _79
REMARK   28  A    between atoms: _79  and  _80
REMARK   29  A    between atoms: _83  and  _85
REMARK   30  A    between atoms: _85  and  _86
REMARK   31  A    between atoms: _85  and  _88
REMARK   32  A    between atoms: _88  and  _89
REMARK   33  A    between atoms: _89  and  _90
REMARK   34  A    between atoms: _95  and  _97
REMARK   35  A    between atoms: _97  and  _98
REMARK   36  A    between atoms: _97  and  _100
REMARK   37  A    between atoms: _100  and  _101
REMARK   38  A    between atoms: _107  and  _109
REMARK   39  A    between atoms: _120  and  _123
REMARK   40  A    between atoms: _123  and  _124
REMARK   41  A    between atoms: _132  and  _133
REMARK   42  A    between atoms: _141  and  _143
REMARK   43  A    between atoms: _143  and  _144
REMARK   44  A    between atoms: _143  and  _146
REMARK   45  A    between atoms: _146  and  _147
REMARK   46  A    between atoms: _147  and  _148
REMARK   47  A    between atoms: _151  and  _153
REMARK   48  A    between atoms: _153  and  _154
REMARK   49  A    between atoms: _153  and  _156
REMARK   50  A    between atoms: _156  and  _157
REMARK   51  A    between atoms: _162  and  _164
REMARK   52  A    between atoms: _164  and  _165
REMARK   53  A    between atoms: _164  and  _167
REMARK   54  A    between atoms: _167  and  _168
REMARK   55  A    between atoms: _168  and  _169
REMARK   56  A    between atoms: _172  and  _174
REMARK   57  A    between atoms: _174  and  _175
REMARK   58  A    between atoms: _174  and  _177
REMARK   59  A    between atoms: _177  and  _178
REMARK   60  A    between atoms: _181  and  _183
REMARK   61  A    between atoms: _183  and  _184
REMARK   62  A    between atoms: _183  and  _186
REMARK   63  A    between atoms: _186  and  _187
REMARK   64  A    between atoms: _188  and  ZN_403
REMARK   65  A    between atoms: _192  and  _194
REMARK   66  A    between atoms: _194  and  _195
REMARK   67  A    between atoms: _194  and  _197
REMARK   68  A    between atoms: _197  and  _198
REMARK   69  A    between atoms: _201  and  _203
REMARK   70  A    between atoms: _203  and  _204
REMARK   71  A    between atoms: _203  and  _206
REMARK   72  A    between atoms: _209  and  _211
REMARK   73  A    between atoms: _211  and  _212
REMARK   74  A    between atoms: _211  and  _214
REMARK   75  A    between atoms: _214  and  _215
REMARK   76  A    between atoms: _220  and  _222
REMARK   77  A    between atoms: _222  and  _223
REMARK   78  A    between atoms: _222  and  _225
REMARK   79  A    between atoms: _225  and  _226
REMARK   80  A    between atoms: _232  and  _234
REMARK   81  A    between atoms: _234  and  _235
REMARK   82  A    between atoms: _234  and  _237
REMARK   83  A    between atoms: _240  and  _242
REMARK   84  A    between atoms: _242  and  _243
REMARK   85  A    between atoms: _242  and  _245
REMARK   86  A    between atoms: _245  and  _246
REMARK   87  A    between atoms: _249  and  _251
REMARK   88  A    between atoms: _251  and  _252
REMARK   89  A    between atoms: _255  and  _257
REMARK   90  A    between atoms: _257  and  _258
REMARK   91  A    between atoms: _257  and  _260
REMARK   92  A    between atoms: _263  and  _265
REMARK   93  A    between atoms: _265  and  _266
REMARK   94  A    between atoms: _265  and  _268
REMARK   95  A    between atoms: _268  and  _269
REMARK   96  A    between atoms: _272  and  _274
REMARK   97  A    between atoms: _274  and  _275
REMARK   98  A    between atoms: _277  and  _279
REMARK   99  A    between atoms: _279  and  _280
REMARK  100  A    between atoms: _279  and  _282
REMARK  101  A    between atoms: _282  and  _283
REMARK  102  A    between atoms: _285  and  _287
REMARK  103  A    between atoms: _287  and  _288
REMARK  104  A    between atoms: _287  and  _290
REMARK  105  A    between atoms: _290  and  _291
REMARK  106  A    between atoms: _294  and  _296
REMARK  107  A    between atoms: _296  and  _297
REMARK  108  A    between atoms: _296  and  _299
REMARK  109  A    between atoms: _299  and  _300
REMARK  110  A    between atoms: _303  and  _305
REMARK  111  A    between atoms: _305  and  _306
REMARK  112  A    between atoms: _305  and  _308
REMARK  113  A    between atoms: _308  and  _309
REMARK  114  A    between atoms: _313  and  _314
REMARK  115  A    between atoms: _320  and  _321
REMARK  116  A    between atoms: _326  and  _328
REMARK  117  A    between atoms: _328  and  _329
REMARK  118  A    between atoms: _328  and  _331
REMARK  119  A    between atoms: _331  and  _332
REMARK  120  A    between atoms: _335  and  _337
REMARK  121  A    between atoms: _337  and  _338
REMARK  122  A    between atoms: _337  and  _340
REMARK  123  A    between atoms: _340  and  _341
REMARK  124  A    between atoms: _344  and  _346
REMARK  125  A    between atoms: _346  and  _347
REMARK  126  A    between atoms: _346  and  _349
REMARK  127  A    between atoms: _351  and  _353
REMARK  128  A    between atoms: _353  and  _354
REMARK  129  A    between atoms: _353  and  _356
REMARK  130  A    between atoms: _359  and  _361
REMARK  131  A    between atoms: _361  and  _362
REMARK  132  A    between atoms: _361  and  _364
REMARK  133  A    between atoms: _364  and  _365
REMARK  134  A    between atoms: _375  and  _377
REMARK  135  A    between atoms: _377  and  _378
REMARK  136  A    between atoms: _377  and  _380
REMARK  137  A    between atoms: _380  and  _381
REMARK  138  A    between atoms: _386  and  _388
REMARK  139  A    between atoms: _388  and  _389
REMARK  140  A    between atoms: _388  and  _391
REMARK  141  A    between atoms: _391  and  _392
REMARK  142  A    between atoms: _392  and  _393
REMARK  143  A    between atoms: _393  and  _394
REMARK                            x       y       z     vdW  Elec       q    Type
REMARK                         _______ _______ _______ _____ _____    ______ ____
ROOT
ATOM      1  O   HOH     1      20.154   3.887  14.193  0.00  0.00    +0.000 OA
ENDROOT
TORSDOF 0
REMARK  Name = ../refined-set-2016/3s76/3s76_pocket.pdb
REMARK  143 active torsions:
REMARK  status: ('A' for Active; 'I' for Inactive)
REMARK    1  A    between atoms: _1  and  _3
REMARK    2  A    between atoms: _3  and  _4
REMARK    3  A    between atoms: _3  and  _6
REMARK    4  A    between atoms: _6  and  _7
REMARK    5  A    between atoms: _17  and  _19
REMARK    6  A    between atoms: _19  and  _20
REMARK    7  A    between atoms: _19  and  _22
REMARK    8  A    between atoms: _22  and  _23
REMARK    9  A    between atoms: _28  and  _29
REMARK   10  A    between atoms: _31  and  _33
REMARK   11  A    between atoms: _33  and  _34
REMARK   12  A    between atoms: _33  and  _36
REMARK   13  A    between atoms: _36  and  _37
REMARK   14  A    between atoms: _40  and  _41
REMARK   15  A    between atoms: _46  and  _48
REMARK   16  A    between atoms: _48  and  _49
REMARK   17  A    between atoms: _48  and  _51
REMARK   18  A    between atoms: _51  and  _52
REMARK   19  A    between atoms: _57  and  _59
REMARK   20  A    between atoms: _59  and  _60
REMARK   21  A    between atoms: _63  and  _65
REMARK   22  A    between atoms: _65  and  _66
REMARK   23  A    between atoms: _65  and  _68
REMARK   24  A    between atoms: _68  and  _69
REMARK   25  A    between atoms: _74  and  _76
REMARK   26  A    between atoms: _76  and  _77
REMARK   27  A    between atoms: _76  and  _79
REMARK   28  A    between atoms: _79  and  _80
REMARK   29  A    between atoms: _83  and  _85
REMARK   30  A    between atoms: _85  and  _86
REMARK   31  A    between atoms: _85  and  _88
REMARK   32  A    between atoms: _88  and  _89
REMARK   33  A    between atoms: _89  and  _90
REMARK   34  A    between atoms: _95  and  _97
REMARK   35  A    between atoms: _97  and  _98
REMARK   36  A    between atoms: _97  and  _100
REMARK   37  A    between atoms: _100  and  _101
REMARK   38  A    between atoms: _107  and  _109
REMARK   39  A    between atoms: _120  and  _123
REMARK   40  A    between atoms: _123  and  _124
REMARK   41  A    between atoms: _132  and  _133
REMARK   42  A    between atoms: _141  and  _143
REMARK   43  A    between atoms: _143  and  _144
REMARK   44  A    between atoms: _143  and  _146
REMARK   45  A    between atoms: _146  and  _147
REMARK   46  A    between atoms: _147  and  _148
REMARK   47  A    between atoms: _151  and  _153
REMARK   48  A    between atoms: _153  and  _154
REMARK   49  A    between atoms: _153  and  _156
REMARK   50  A    between atoms: _156  and  _157
REMARK   51  A    between atoms: _162  and  _164
REMARK   52  A    between atoms: _164  and  _165
REMARK   53  A    between atoms: _164  and  _167
REMARK   54  A    between atoms: _167  and  _168
REMARK   55  A    between atoms: _168  and  _169
REMARK   56  A    between atoms: _172  and  _174
REMARK   57  A    between atoms: _174  and  _175
REMARK   58  A    between atoms: _174  and  _177
REMARK   59  A    between atoms: _177  and  _178
REMARK   60  A    between atoms: _181  and  _183
REMARK   61  A    between atoms: _183  and  _184
REMARK   62  A    between atoms: _183  and  _186
REMARK   63  A    between atoms: _186  and  _187
REMARK   64  A    between atoms: _188  and  ZN_403
REMARK   65  A    between atoms: _192  and  _194
REMARK   66  A    between atoms: _194  and  _195
REMARK   67  A    between atoms: _194  and  _197
REMARK   68  A    between atoms: _197  and  _198
REMARK   69  A    between atoms: _201  and  _203
REMARK   70  A    between atoms: _203  and  _204
REMARK   71  A    between atoms: _203  and  _206
REMARK   72  A    between atoms: _209  and  _211
REMARK   73  A    between atoms: _211  and  _212
REMARK   74  A    between atoms: _211  and  _214
REMARK   75  A    between atoms: _214  and  _215
REMARK   76  A    between atoms: _220  and  _222
REMARK   77  A    between atoms: _222  and  _223
REMARK   78  A    between atoms: _222  and  _225
REMARK   79  A    between atoms: _225  and  _226
REMARK   80  A    between atoms: _232  and  _234
REMARK   81  A    between atoms: _234  and  _235
REMARK   82  A    between atoms: _234  and  _237
REMARK   83  A    between atoms: _240  and  _242
REMARK   84  A    between atoms: _242  and  _243
REMARK   85  A    between atoms: _242  and  _245
REMARK   86  A    between atoms: _245  and  _246
REMARK   87  A    between atoms: _249  and  _251
REMARK   88  A    between atoms: _251  and  _252
REMARK   89  A    between atoms: _255  and  _257
REMARK   90  A    between atoms: _257  and  _258
REMARK   91  A    between atoms: _257  and  _260
REMARK   92  A    between atoms: _263  and  _265
REMARK   93  A    between atoms: _265  and  _266
REMARK   94  A    between atoms: _265  and  _268
REMARK   95  A    between atoms: _268  and  _269
REMARK   96  A    between atoms: _272  and  _274
REMARK   97  A    between atoms: _274  and  _275
REMARK   98  A    between atoms: _277  and  _279
REMARK   99  A    between atoms: _279  and  _280
REMARK  100  A    between atoms: _279  and  _282
REMARK  101  A    between atoms: _282  and  _283
REMARK  102  A    between atoms: _285  and  _287
REMARK  103  A    between atoms: _287  and  _288
REMARK  104  A    between atoms: _287  and  _290
REMARK  105  A    between atoms: _290  and  _291
REMARK  106  A    between atoms: _294  and  _296
REMARK  107  A    between atoms: _296  and  _297
REMARK  108  A    between atoms: _296  and  _299
REMARK  109  A    between atoms: _299  and  _300
REMARK  110  A    between atoms: _303  and  _305
REMARK  111  A    between atoms: _305  and  _306
REMARK  112  A    between atoms: _305  and  _308
REMARK  113  A    between atoms: _308  and  _309
REMARK  114  A    between atoms: _313  and  _314
REMARK  115  A    between atoms: _320  and  _321
REMARK  116  A    between atoms: _326  and  _328
REMARK  117  A    between atoms: _328  and  _329
REMARK  118  A    between atoms: _328  and  _331
REMARK  119  A    between atoms: _331  and  _332
REMARK  120  A    between atoms: _335  and  _337
REMARK  121  A    between atoms: _337  and  _338
REMARK  122  A    between atoms: _337  and  _340
REMARK  123  A    between atoms: _340  and  _341
REMARK  124  A    between atoms: _344  and  _346
REMARK  125  A    between atoms: _346  and  _347
REMARK  126  A    between atoms: _346  and  _349
REMARK  127  A    between atoms: _351  and  _353
REMARK  128  A    between atoms: _353  and  _354
REMARK  129  A    between atoms: _353  and  _356
REMARK  130  A    between atoms: _359  and  _361
REMARK  131  A    between atoms: _361  and  _362
REMARK  132  A    between atoms: _361  and  _364
REMARK  133  A    between atoms: _364  and  _365
REMARK  134  A    between atoms: _375  and  _377
REMARK  135  A    between atoms: _377  and  _378
REMARK  136  A    between atoms: _377  and  _380
REMARK  137  A    between atoms: _380  and  _381
REMARK  138  A    between atoms: _386  and  _388
REMARK  139  A    between atoms: _388  and  _389
REMARK  140  A    between atoms: _388  and  _391
REMARK  141  A    between atoms: _391  and  _392
REMARK  142  A    between atoms: _392  and  _393
REMARK  143  A    between atoms: _393  and  _394
REMARK                            x       y       z     vdW  Elec       q    Type
REMARK                         _______ _______ _______ _____ _____    ______ ____
ROOT
ATOM      1  O   HOH     1      18.056   4.672   7.646  0.00  0.00    +0.000 OA
ENDROOT
TORSDOF 0
REMARK  Name = ../refined-set-2016/3s76/3s76_pocket.pdb
REMARK  143 active torsions:
REMARK  status: ('A' for Active; 'I' for Inactive)
REMARK    1  A    between atoms: _1  and  _3
REMARK    2  A    between atoms: _3  and  _4
REMARK    3  A    between atoms: _3  and  _6
REMARK    4  A    between atoms: _6  and  _7
REMARK    5  A    between atoms: _17  and  _19
REMARK    6  A    between atoms: _19  and  _20
REMARK    7  A    between atoms: _19  and  _22
REMARK    8  A    between atoms: _22  and  _23
REMARK    9  A    between atoms: _28  and  _29
REMARK   10  A    between atoms: _31  and  _33
REMARK   11  A    between atoms: _33  and  _34
REMARK   12  A    between atoms: _33  and  _36
REMARK   13  A    between atoms: _36  and  _37
REMARK   14  A    between atoms: _40  and  _41
REMARK   15  A    between atoms: _46  and  _48
REMARK   16  A    between atoms: _48  and  _49
REMARK   17  A    between atoms: _48  and  _51
REMARK   18  A    between atoms: _51  and  _52
REMARK   19  A    between atoms: _57  and  _59
REMARK   20  A    between atoms: _59  and  _60
REMARK   21  A    between atoms: _63  and  _65
REMARK   22  A    between atoms: _65  and  _66
REMARK   23  A    between atoms: _65  and  _68
REMARK   24  A    between atoms: _68  and  _69
REMARK   25  A    between atoms: _74  and  _76
REMARK   26  A    between atoms: _76  and  _77
REMARK   27  A    between atoms: _76  and  _79
REMARK   28  A    between atoms: _79  and  _80
REMARK   29  A    between atoms: _83  and  _85
REMARK   30  A    between atoms: _85  and  _86
REMARK   31  A    between atoms: _85  and  _88
REMARK   32  A    between atoms: _88  and  _89
REMARK   33  A    between atoms: _89  and  _90
REMARK   34  A    between atoms: _95  and  _97
REMARK   35  A    between atoms: _97  and  _98
REMARK   36  A    between atoms: _97  and  _100
REMARK   37  A    between atoms: _100  and  _101
REMARK   38  A    between atoms: _107  and  _109
REMARK   39  A    between atoms: _120  and  _123
REMARK   40  A    between atoms: _123  and  _124
REMARK   41  A    between atoms: _132  and  _133
REMARK   42  A    between atoms: _141  and  _143
REMARK   43  A    between atoms: _143  and  _144
REMARK   44  A    between atoms: _143  and  _146
REMARK   45  A    between atoms: _146  and  _147
REMARK   46  A    between atoms: _147  and  _148
REMARK   47  A    between atoms: _151  and  _153
REMARK   48  A    between atoms: _153  and  _154
REMARK   49  A    between atoms: _153  and  _156
REMARK   50  A    between atoms: _156  and  _157
REMARK   51  A    between atoms: _162  and  _164
REMARK   52  A    between atoms: _164  and  _165
REMARK   53  A    between atoms: _164  and  _167
REMARK   54  A    between atoms: _167  and  _168
REMARK   55  A    between atoms: _168  and  _169
REMARK   56  A    between atoms: _172  and  _174
REMARK   57  A    between atoms: _174  and  _175
REMARK   58  A    between atoms: _174  and  _177
REMARK   59  A    between atoms: _177  and  _178
REMARK   60  A    between atoms: _181  and  _183
REMARK   61  A    between atoms: _183  and  _184
REMARK   62  A    between atoms: _183  and  _186
REMARK   63  A    between atoms: _186  and  _187
REMARK   64  A    between atoms: _188  and  ZN_403
REMARK   65  A    between atoms: _192  and  _194
REMARK   66  A    between atoms: _194  and  _195
REMARK   67  A    between atoms: _194  and  _197
REMARK   68  A    between atoms: _197  and  _198
REMARK   69  A    between atoms: _201  and  _203
REMARK   70  A    between atoms: _203  and  _204
REMARK   71  A    between atoms: _203  and  _206
REMARK   72  A    between atoms: _209  and  _211
REMARK   73  A    between atoms: _211  and  _212
REMARK   74  A    between atoms: _211  and  _214
REMARK   75  A    between atoms: _214  and  _215
REMARK   76  A    between atoms: _220  and  _222
REMARK   77  A    between atoms: _222  and  _223
REMARK   78  A    between atoms: _222  and  _225
REMARK   79  A    between atoms: _225  and  _226
REMARK   80  A    between atoms: _232  and  _234
REMARK   81  A    between atoms: _234  and  _235
REMARK   82  A    between atoms: _234  and  _237
REMARK   83  A    between atoms: _240  and  _242
REMARK   84  A    between atoms: _242  and  _243
REMARK   85  A    between atoms: _242  and  _245
REMARK   86  A    between atoms: _245  and  _246
REMARK   87  A    between atoms: _249  and  _251
REMARK   88  A    between atoms: _251  and  _252
REMARK   89  A    between atoms: _255  and  _257
REMARK   90  A    between atoms: _257  and  _258
REMARK   91  A    between atoms: _257  and  _260
REMARK   92  A    between atoms: _263  and  _265
REMARK   93  A    between atoms: _265  and  _266
REMARK   94  A    between atoms: _265  and  _268
REMARK   95  A    between atoms: _268  and  _269
REMARK   96  A    between atoms: _272  and  _274
REMARK   97  A    between atoms: _274  and  _275
REMARK   98  A    between atoms: _277  and  _279
REMARK   99  A    between atoms: _279  and  _280
REMARK  100  A    between atoms: _279  and  _282
REMARK  101  A    between atoms: _282  and  _283
REMARK  102  A    between atoms: _285  and  _287
REMARK  103  A    between atoms: _287  and  _288
REMARK  104  A    between atoms: _287  and  _290
REMARK  105  A    between atoms: _290  and  _291
REMARK  106  A    between atoms: _294  and  _296
REMARK  107  A    between atoms: _296  and  _297
REMARK  108  A    between atoms: _296  and  _299
REMARK  109  A    between atoms: _299  and  _300
REMARK  110  A    between atoms: _303  and  _305
REMARK  111  A    between atoms: _305  and  _306
REMARK  112  A    between atoms: _305  and  _308
REMARK  113  A    between atoms: _308  and  _309
REMARK  114  A    between atoms: _313  and  _314
REMARK  115  A    between atoms: _320  and  _321
REMARK  116  A    between atoms: _326  and  _328
REMARK  117  A    between atoms: _328  and  _329
REMARK  118  A    between atoms: _328  and  _331
REMARK  119  A    between atoms: _331  and  _332
REMARK  120  A    between atoms: _335  and  _337
REMARK  121  A    between atoms: _337  and  _338
REMARK  122  A    between atoms: _337  and  _340
REMARK  123  A    between atoms: _340  and  _341
REMARK  124  A    between atoms: _344  and  _346
REMARK  125  A    between atoms: _346  and  _347
REMARK  126  A    between atoms: _346  and  _349
REMARK  127  A    between atoms: _351  and  _353
REMARK  128  A    between atoms: _353  and  _354
REMARK  129  A    between atoms: _353  and  _356
REMARK  130  A    between atoms: _359  and  _361
REMARK  131  A    between atoms: _361  and  _362
REMARK  132  A    between atoms: _361  and  _364
REMARK  133  A    between atoms: _364  and  _365
REMARK  134  A    between atoms: _375  and  _377
REMARK  135  A    between atoms: _377  and  _378
REMARK  136  A    between atoms: _377  and  _380
REMARK  137  A    between atoms: _380  and  _381
REMARK  138  A    between atoms: _386  and  _388
REMARK  139  A    between atoms: _388  and  _389
REMARK  140  A    between atoms: _388  and  _391
REMARK  141  A    between atoms: _391  and  _392
REMARK  142  A    between atoms: _392  and  _393
REMARK  143  A    between atoms: _393  and  _394
REMARK                            x       y       z     vdW  Elec       q    Type
REMARK                         _______ _______ _______ _____ _____    ______ ____
ROOT
ATOM      1  O   HOH     1      19.738   2.707  11.199  0.00  0.00    +0.000 OA
ENDROOT
TORSDOF 0
REMARK  Name = ../refined-set-2016/3s76/3s76_pocket.pdb
REMARK  143 active torsions:
REMARK  status: ('A' for Active; 'I' for Inactive)
REMARK    1  A    between atoms: _1  and  _3
REMARK    2  A    between atoms: _3  and  _4
REMARK    3  A    between atoms: _3  and  _6
REMARK    4  A    between atoms: _6  and  _7
REMARK    5  A    between atoms: _17  and  _19
REMARK    6  A    between atoms: _19  and  _20
REMARK    7  A    between atoms: _19  and  _22
REMARK    8  A    between atoms: _22  and  _23
REMARK    9  A    between atoms: _28  and  _29
REMARK   10  A    between atoms: _31  and  _33
REMARK   11  A    between atoms: _33  and  _34
REMARK   12  A    between atoms: _33  and  _36
REMARK   13  A    between atoms: _36  and  _37
REMARK   14  A    between atoms: _40  and  _41
REMARK   15  A    between atoms: _46  and  _48
REMARK   16  A    between atoms: _48  and  _49
REMARK   17  A    between atoms: _48  and  _51
REMARK   18  A    between atoms: _51  and  _52
REMARK   19  A    between atoms: _57  and  _59
REMARK   20  A    between atoms: _59  and  _60
REMARK   21  A    between atoms: _63  and  _65
REMARK   22  A    between atoms: _65  and  _66
REMARK   23  A    between atoms: _65  and  _68
REMARK   24  A    between atoms: _68  and  _69
REMARK   25  A    between atoms: _74  and  _76
REMARK   26  A    between atoms: _76  and  _77
REMARK   27  A    between atoms: _76  and  _79
REMARK   28  A    between atoms: _79  and  _80
REMARK   29  A    between atoms: _83  and  _85
REMARK   30  A    between atoms: _85  and  _86
REMARK   31  A    between atoms: _85  and  _88
REMARK   32  A    between atoms: _88  and  _89
REMARK   33  A    between atoms: _89  and  _90
REMARK   34  A    between atoms: _95  and  _97
REMARK   35  A    between atoms: _97  and  _98
REMARK   36  A    between atoms: _97  and  _100
REMARK   37  A    between atoms: _100  and  _101
REMARK   38  A    between atoms: _107  and  _109
REMARK   39  A    between atoms: _120  and  _123
REMARK   40  A    between atoms: _123  and  _124
REMARK   41  A    between atoms: _132  and  _133
REMARK   42  A    between atoms: _141  and  _143
REMARK   43  A    between atoms: _143  and  _144
REMARK   44  A    between atoms: _143  and  _146
REMARK   45  A    between atoms: _146  and  _147
REMARK   46  A    between atoms: _147  and  _148
REMARK   47  A    between atoms: _151  and  _153
REMARK   48  A    between atoms: _153  and  _154
REMARK   49  A    between atoms: _153  and  _156
REMARK   50  A    between atoms: _156  and  _157
REMARK   51  A    between atoms: _162  and  _164
REMARK   52  A    between atoms: _164  and  _165
REMARK   53  A    between atoms: _164  and  _167
REMARK   54  A    between atoms: _167  and  _168
REMARK   55  A    between atoms: _168  and  _169
REMARK   56  A    between atoms: _172  and  _174
REMARK   57  A    between atoms: _174  and  _175
REMARK   58  A    between atoms: _174  and  _177
REMARK   59  A    between atoms: _177  and  _178
REMARK   60  A    between atoms: _181  and  _183
REMARK   61  A    between atoms: _183  and  _184
REMARK   62  A    between atoms: _183  and  _186
REMARK   63  A    between atoms: _186  and  _187
REMARK   64  A    between atoms: _188  and  ZN_403
REMARK   65  A    between atoms: _192  and  _194
REMARK   66  A    between atoms: _194  and  _195
REMARK   67  A    between atoms: _194  and  _197
REMARK   68  A    between atoms: _197  and  _198
REMARK   69  A    between atoms: _201  and  _203
REMARK   70  A    between atoms: _203  and  _204
REMARK   71  A    between atoms: _203  and  _206
REMARK   72  A    between atoms: _209  and  _211
REMARK   73  A    between atoms: _211  and  _212
REMARK   74  A    between atoms: _211  and  _214
REMARK   75  A    between atoms: _214  and  _215
REMARK   76  A    between atoms: _220  and  _222
REMARK   77  A    between atoms: _222  and  _223
REMARK   78  A    between atoms: _222  and  _225
REMARK   79  A    between atoms: _225  and  _226
REMARK   80  A    between atoms: _232  and  _234
REMARK   81  A    between atoms: _234  and  _235
REMARK   82  A    between atoms: _234  and  _237
REMARK   83  A    between atoms: _240  and  _242
REMARK   84  A    between atoms: _242  and  _243
REMARK   85  A    between atoms: _242  and  _245
REMARK   86  A    between atoms: _245  and  _246
REMARK   87  A    between atoms: _249  and  _251
REMARK   88  A    between atoms: _251  and  _252
REMARK   89  A    between atoms: _255  and  _257
REMARK   90  A    between atoms: _257  and  _258
REMARK   91  A    between atoms: _257  and  _260
REMARK   92  A    between atoms: _263  and  _265
REMARK   93  A    between atoms: _265  and  _266
REMARK   94  A    between atoms: _265  and  _268
REMARK   95  A    between atoms: _268  and  _269
REMARK   96  A    between atoms: _272  and  _274
REMARK   97  A    between atoms: _274  and  _275
REMARK   98  A    between atoms: _277  and  _279
REMARK   99  A    between atoms: _279  and  _280
REMARK  100  A    between atoms: _279  and  _282
REMARK  101  A    between atoms: _282  and  _283
REMARK  102  A    between atoms: _285  and  _287
REMARK  103  A    between atoms: _287  and  _288
REMARK  104  A    between atoms: _287  and  _290
REMARK  105  A    between atoms: _290  and  _291
REMARK  106  A    between atoms: _294  and  _296
REMARK  107  A    between atoms: _296  and  _297
REMARK  108  A    between atoms: _296  and  _299
REMARK  109  A    between atoms: _299  and  _300
REMARK  110  A    between atoms: _303  and  _305
REMARK  111  A    between atoms: _305  and  _306
REMARK  112  A    between atoms: _305  and  _308
REMARK  113  A    between atoms: _308  and  _309
REMARK  114  A    between atoms: _313  and  _314
REMARK  115  A    between atoms: _320  and  _321
REMARK  116  A    between atoms: _326  and  _328
REMARK  117  A    between atoms: _328  and  _329
REMARK  118  A    between atoms: _328  and  _331
REMARK  119  A    between atoms: _331  and  _332
REMARK  120  A    between atoms: _335  and  _337
REMARK  121  A    between atoms: _337  and  _338
REMARK  122  A    between atoms: _337  and  _340
REMARK  123  A    between atoms: _340  and  _341
REMARK  124  A    between atoms: _344  and  _346
REMARK  125  A    between atoms: _346  and  _347
REMARK  126  A    between atoms: _346  and  _349
REMARK  127  A    between atoms: _351  and  _353
REMARK  128  A    between atoms: _353  and  _354
REMARK  129  A    between atoms: _353  and  _356
REMARK  130  A    between atoms: _359  and  _361
REMARK  131  A    between atoms: _361  and  _362
REMARK  132  A    between atoms: _361  and  _364
REMARK  133  A    between atoms: _364  and  _365
REMARK  134  A    between atoms: _375  and  _377
REMARK  135  A    between atoms: _377  and  _378
REMARK  136  A    between atoms: _377  and  _380
REMARK  137  A    between atoms: _380  and  _381
REMARK  138  A    between atoms: _386  and  _388
REMARK  139  A    between atoms: _388  and  _389
REMARK  140  A    between atoms: _388  and  _391
REMARK  141  A    between atoms: _391  and  _392
REMARK  142  A    between atoms: _392  and  _393
REMARK  143  A    between atoms: _393  and  _394
REMARK                            x       y       z     vdW  Elec       q    Type
REMARK                         _______ _______ _______ _____ _____    ______ ____
ROOT
ATOM      1  O   HOH     1      23.501   4.825  12.119  0.00  0.00    +0.000 OA
ENDROOT
TORSDOF 0
REMARK  Name = ../refined-set-2016/3s76/3s76_pocket.pdb
REMARK  143 active torsions:
REMARK  status: ('A' for Active; 'I' for Inactive)
REMARK    1  A    between atoms: _1  and  _3
REMARK    2  A    between atoms: _3  and  _4
REMARK    3  A    between atoms: _3  and  _6
REMARK    4  A    between atoms: _6  and  _7
REMARK    5  A    between atoms: _17  and  _19
REMARK    6  A    between atoms: _19  and  _20
REMARK    7  A    between atoms: _19  and  _22
REMARK    8  A    between atoms: _22  and  _23
REMARK    9  A    between atoms: _28  and  _29
REMARK   10  A    between atoms: _31  and  _33
REMARK   11  A    between atoms: _33  and  _34
REMARK   12  A    between atoms: _33  and  _36
REMARK   13  A    between atoms: _36  and  _37
REMARK   14  A    between atoms: _40  and  _41
REMARK   15  A    between atoms: _46  and  _48
REMARK   16  A    between atoms: _48  and  _49
REMARK   17  A    between atoms: _48  and  _51
REMARK   18  A    between atoms: _51  and  _52
REMARK   19  A    between atoms: _57  and  _59
REMARK   20  A    between atoms: _59  and  _60
REMARK   21  A    between atoms: _63  and  _65
REMARK   22  A    between atoms: _65  and  _66
REMARK   23  A    between atoms: _65  and  _68
REMARK   24  A    between atoms: _68  and  _69
REMARK   25  A    between atoms: _74  and  _76
REMARK   26  A    between atoms: _76  and  _77
REMARK   27  A    between atoms: _76  and  _79
REMARK   28  A    between atoms: _79  and  _80
REMARK   29  A    between atoms: _83  and  _85
REMARK   30  A    between atoms: _85  and  _86
REMARK   31  A    between atoms: _85  and  _88
REMARK   32  A    between atoms: _88  and  _89
REMARK   33  A    between atoms: _89  and  _90
REMARK   34  A    between atoms: _95  and  _97
REMARK   35  A    between atoms: _97  and  _98
REMARK   36  A    between atoms: _97  and  _100
REMARK   37  A    between atoms: _100  and  _101
REMARK   38  A    between atoms: _107  and  _109
REMARK   39  A    between atoms: _120  and  _123
REMARK   40  A    between atoms: _123  and  _124
REMARK   41  A    between atoms: _132  and  _133
REMARK   42  A    between atoms: _141  and  _143
REMARK   43  A    between atoms: _143  and  _144
REMARK   44  A    between atoms: _143  and  _146
REMARK   45  A    between atoms: _146  and  _147
REMARK   46  A    between atoms: _147  and  _148
REMARK   47  A    between atoms: _151  and  _153
REMARK   48  A    between atoms: _153  and  _154
REMARK   49  A    between atoms: _153  and  _156
REMARK   50  A    between atoms: _156  and  _157
REMARK   51  A    between atoms: _162  and  _164
REMARK   52  A    between atoms: _164  and  _165
REMARK   53  A    between atoms: _164  and  _167
REMARK   54  A    between atoms: _167  and  _168
REMARK   55  A    between atoms: _168  and  _169
REMARK   56  A    between atoms: _172  and  _174
REMARK   57  A    between atoms: _174  and  _175
REMARK   58  A    between atoms: _174  and  _177
REMARK   59  A    between atoms: _177  and  _178
REMARK   60  A    between atoms: _181  and  _183
REMARK   61  A    between atoms: _183  and  _184
REMARK   62  A    between atoms: _183  and  _186
REMARK   63  A    between atoms: _186  and  _187
REMARK   64  A    between atoms: _188  and  ZN_403
REMARK   65  A    between atoms: _192  and  _194
REMARK   66  A    between atoms: _194  and  _195
REMARK   67  A    between atoms: _194  and  _197
REMARK   68  A    between atoms: _197  and  _198
REMARK   69  A    between atoms: _201  and  _203
REMARK   70  A    between atoms: _203  and  _204
REMARK   71  A    between atoms: _203  and  _206
REMARK   72  A    between atoms: _209  and  _211
REMARK   73  A    between atoms: _211  and  _212
REMARK   74  A    between atoms: _211  and  _214
REMARK   75  A    between atoms: _214  and  _215
REMARK   76  A    between atoms: _220  and  _222
REMARK   77  A    between atoms: _222  and  _223
REMARK   78  A    between atoms: _222  and  _225
REMARK   79  A    between atoms: _225  and  _226
REMARK   80  A    between atoms: _232  and  _234
REMARK   81  A    between atoms: _234  and  _235
REMARK   82  A    between atoms: _234  and  _237
REMARK   83  A    between atoms: _240  and  _242
REMARK   84  A    between atoms: _242  and  _243
REMARK   85  A    between atoms: _242  and  _245
REMARK   86  A    between atoms: _245  and  _246
REMARK   87  A    between atoms: _249  and  _251
REMARK   88  A    between atoms: _251  and  _252
REMARK   89  A    between atoms: _255  and  _257
REMARK   90  A    between atoms: _257  and  _258
REMARK   91  A    between atoms: _257  and  _260
REMARK   92  A    between atoms: _263  and  _265
REMARK   93  A    between atoms: _265  and  _266
REMARK   94  A    between atoms: _265  and  _268
REMARK   95  A    between atoms: _268  and  _269
REMARK   96  A    between atoms: _272  and  _274
REMARK   97  A    between atoms: _274  and  _275
REMARK   98  A    between atoms: _277  and  _279
REMARK   99  A    between atoms: _279  and  _280
REMARK  100  A    between atoms: _279  and  _282
REMARK  101  A    between atoms: _282  and  _283
REMARK  102  A    between atoms: _285  and  _287
REMARK  103  A    between atoms: _287  and  _288
REMARK  104  A    between atoms: _287  and  _290
REMARK  105  A    between atoms: _290  and  _291
REMARK  106  A    between atoms: _294  and  _296
REMARK  107  A    between atoms: _296  and  _297
REMARK  108  A    between atoms: _296  and  _299
REMARK  109  A    between atoms: _299  and  _300
REMARK  110  A    between atoms: _303  and  _305
REMARK  111  A    between atoms: _305  and  _306
REMARK  112  A    between atoms: _305  and  _308
REMARK  113  A    between atoms: _308  and  _309
REMARK  114  A    between atoms: _313  and  _314
REMARK  115  A    between atoms: _320  and  _321
REMARK  116  A    between atoms: _326  and  _328
REMARK  117  A    between atoms: _328  and  _329
REMARK  118  A    between atoms: _328  and  _331
REMARK  119  A    between atoms: _331  and  _332
REMARK  120  A    between atoms: _335  and  _337
REMARK  121  A    between atoms: _337  and  _338
REMARK  122  A    between atoms: _337  and  _340
REMARK  123  A    between atoms: _340  and  _341
REMARK  124  A    between atoms: _344  and  _346
REMARK  125  A    between atoms: _346  and  _347
REMARK  126  A    between atoms: _346  and  _349
REMARK  127  A    between atoms: _351  and  _353
REMARK  128  A    between atoms: _353  and  _354
REMARK  129  A    between atoms: _353  and  _356
REMARK  130  A    between atoms: _359  and  _361
REMARK  131  A    between atoms: _361  and  _362
REMARK  132  A    between atoms: _361  and  _364
REMARK  133  A    between atoms: _364  and  _365
REMARK  134  A    between atoms: _375  and  _377
REMARK  135  A    between atoms: _377  and  _378
REMARK  136  A    between atoms: _377  and  _380
REMARK  137  A    between atoms: _380  and  _381
REMARK  138  A    between atoms: _386  and  _388
REMARK  139  A    between atoms: _388  and  _389
REMARK  140  A    between atoms: _388  and  _391
REMARK  141  A    between atoms: _391  and  _392
REMARK  142  A    between atoms: _392  and  _393
REMARK  143  A    between atoms: _393  and  _394
REMARK                            x       y       z     vdW  Elec       q    Type
REMARK                         _______ _______ _______ _____ _____    ______ ____
ROOT
ATOM      1  O   HOH     1      19.039   6.974  13.915  0.00  0.00    +0.000 OA
ENDROOT
TORSDOF 0
