REMARK  Name = ../refined-set-2016/3oim/3oim_pocket.pdb
REMARK  163 active torsions:
REMARK  status: ('A' for Active; 'I' for Inactive)
REMARK    1  A    between atoms: _1  and  _3
REMARK    2  A    between atoms: _3  and  _4
REMARK    3  A    between atoms: _3  and  _6
REMARK    4  A    between atoms: _6  and  _7
REMARK    5  A    between atoms: _17  and  _19
REMARK    6  A    between atoms: _19  and  _20
REMARK    7  A    between atoms: _19  and  _22
REMARK    8  A    between atoms: _22  and  _23
REMARK    9  A    between atoms: _28  and  _29
REMARK   10  A    between atoms: _31  and  _33
REMARK   11  A    between atoms: _33  and  _34
REMARK   12  A    between atoms: _33  and  _36
REMARK   13  A    between atoms: _36  and  _37
REMARK   14  A    between atoms: _43  and  _45
REMARK   15  A    between atoms: _45  and  _46
REMARK   16  A    between atoms: _45  and  _48
REMARK   17  A    between atoms: _48  and  _49
REMARK   18  A    between atoms: _52  and  _53
REMARK   19  A    between atoms: _58  and  _60
REMARK   20  A    between atoms: _60  and  _61
REMARK   21  A    between atoms: _60  and  _63
REMARK   22  A    between atoms: _63  and  _64
REMARK   23  A    between atoms: _69  and  _71
REMARK   24  A    between atoms: _71  and  _72
REMARK   25  A    between atoms: _71  and  _74
REMARK   26  A    between atoms: _74  and  _75
REMARK   27  A    between atoms: _80  and  _82
REMARK   28  A    between atoms: _82  and  _83
REMARK   29  A    between atoms: _86  and  _88
REMARK   30  A    between atoms: _88  and  _89
REMARK   31  A    between atoms: _88  and  _91
REMARK   32  A    between atoms: _91  and  _92
REMARK   33  A    between atoms: _97  and  _99
REMARK   34  A    between atoms: _99  and  _100
REMARK   35  A    between atoms: _99  and  _102
REMARK   36  A    between atoms: _102  and  _103
REMARK   37  A    between atoms: _106  and  _108
REMARK   38  A    between atoms: _108  and  _109
REMARK   39  A    between atoms: _108  and  _111
REMARK   40  A    between atoms: _111  and  _112
REMARK   41  A    between atoms: _112  and  _113
REMARK   42  A    between atoms: _118  and  _120
REMARK   43  A    between atoms: _120  and  _121
REMARK   44  A    between atoms: _120  and  _123
REMARK   45  A    between atoms: _123  and  _124
REMARK   46  A    between atoms: _130  and  _132
REMARK   47  A    between atoms: _143  and  _146
REMARK   48  A    between atoms: _146  and  _147
REMARK   49  A    between atoms: _155  and  _156
REMARK   50  A    between atoms: _164  and  _166
REMARK   51  A    between atoms: _166  and  _167
REMARK   52  A    between atoms: _166  and  _169
REMARK   53  A    between atoms: _169  and  _170
REMARK   54  A    between atoms: _170  and  _171
REMARK   55  A    between atoms: _174  and  _176
REMARK   56  A    between atoms: _176  and  _177
REMARK   57  A    between atoms: _176  and  _179
REMARK   58  A    between atoms: _179  and  _180
REMARK   59  A    between atoms: _185  and  _187
REMARK   60  A    between atoms: _187  and  _188
REMARK   61  A    between atoms: _187  and  _190
REMARK   62  A    between atoms: _190  and  _191
REMARK   63  A    between atoms: _191  and  _192
REMARK   64  A    between atoms: _195  and  _197
REMARK   65  A    between atoms: _197  and  _198
REMARK   66  A    between atoms: _197  and  _200
REMARK   67  A    between atoms: _200  and  _201
REMARK   68  A    between atoms: _204  and  _206
REMARK   69  A    between atoms: _206  and  _207
REMARK   70  A    between atoms: _206  and  _209
REMARK   71  A    between atoms: _209  and  _210
REMARK   72  A    between atoms: _211  and  ZN_451
REMARK   73  A    between atoms: _215  and  _217
REMARK   74  A    between atoms: _217  and  _218
REMARK   75  A    between atoms: _217  and  _220
REMARK   76  A    between atoms: _220  and  _221
REMARK   77  A    between atoms: _224  and  _226
REMARK   78  A    between atoms: _226  and  _227
REMARK   79  A    between atoms: _226  and  _229
REMARK   80  A    between atoms: _232  and  _234
REMARK   81  A    between atoms: _234  and  _235
REMARK   82  A    between atoms: _234  and  _237
REMARK   83  A    between atoms: _237  and  _238
REMARK   84  A    between atoms: _243  and  _245
REMARK   85  A    between atoms: _245  and  _246
REMARK   86  A    between atoms: _245  and  _248
REMARK   87  A    between atoms: _248  and  _249
REMARK   88  A    between atoms: _255  and  _257
REMARK   89  A    between atoms: _257  and  _258
REMARK   90  A    between atoms: _260  and  _262
REMARK   91  A    between atoms: _262  and  _263
REMARK   92  A    between atoms: _262  and  _265
REMARK   93  A    between atoms: _265  and  _266
REMARK   94  A    between atoms: _266  and  _267
REMARK   95  A    between atoms: _267  and  _268
REMARK   96  A    between atoms: _268  and  _269
REMARK   97  A    between atoms: _273  and  _275
REMARK   98  A    between atoms: _275  and  _276
REMARK   99  A    between atoms: _275  and  _278
REMARK  100  A    between atoms: _281  and  _283
REMARK  101  A    between atoms: _283  and  _284
REMARK  102  A    between atoms: _283  and  _286
REMARK  103  A    between atoms: _286  and  _287
REMARK  104  A    between atoms: _287  and  _288
REMARK  105  A    between atoms: _293  and  _295
REMARK  106  A    between atoms: _295  and  _296
REMARK  107  A    between atoms: _295  and  _298
REMARK  108  A    between atoms: _298  and  _299
REMARK  109  A    between atoms: _302  and  _304
REMARK  110  A    between atoms: _304  and  _305
REMARK  111  A    between atoms: _308  and  _310
REMARK  112  A    between atoms: _310  and  _311
REMARK  113  A    between atoms: _310  and  _313
REMARK  114  A    between atoms: _316  and  _318
REMARK  115  A    between atoms: _318  and  _319
REMARK  116  A    between atoms: _318  and  _321
REMARK  117  A    between atoms: _321  and  _322
REMARK  118  A    between atoms: _325  and  _327
REMARK  119  A    between atoms: _327  and  _328
REMARK  120  A    between atoms: _327  and  _330
REMARK  121  A    between atoms: _330  and  _331
REMARK  122  A    between atoms: _333  and  _335
REMARK  123  A    between atoms: _335  and  _336
REMARK  124  A    between atoms: _335  and  _338
REMARK  125  A    between atoms: _338  and  _339
REMARK  126  A    between atoms: _342  and  _344
REMARK  127  A    between atoms: _344  and  _345
REMARK  128  A    between atoms: _344  and  _347
REMARK  129  A    between atoms: _347  and  _348
REMARK  130  A    between atoms: _351  and  _353
REMARK  131  A    between atoms: _353  and  _354
REMARK  132  A    between atoms: _353  and  _356
REMARK  133  A    between atoms: _356  and  _357
REMARK  134  A    between atoms: _361  and  _362
REMARK  135  A    between atoms: _368  and  _369
REMARK  136  A    between atoms: _374  and  _376
REMARK  137  A    between atoms: _376  and  _377
REMARK  138  A    between atoms: _376  and  _379
REMARK  139  A    between atoms: _379  and  _380
REMARK  140  A    between atoms: _383  and  _385
REMARK  141  A    between atoms: _385  and  _386
REMARK  142  A    between atoms: _385  and  _388
REMARK  143  A    between atoms: _388  and  _389
REMARK  144  A    between atoms: _392  and  _394
REMARK  145  A    between atoms: _394  and  _395
REMARK  146  A    between atoms: _394  and  _397
REMARK  147  A    between atoms: _399  and  _401
REMARK  148  A    between atoms: _401  and  _402
REMARK  149  A    between atoms: _401  and  _404
REMARK  150  A    between atoms: _407  and  _409
REMARK  151  A    between atoms: _409  and  _410
REMARK  152  A    between atoms: _409  and  _412
REMARK  153  A    between atoms: _412  and  _413
REMARK  154  A    between atoms: _423  and  _425
REMARK  155  A    between atoms: _425  and  _426
REMARK  156  A    between atoms: _425  and  _428
REMARK  157  A    between atoms: _428  and  _429
REMARK  158  A    between atoms: _434  and  _436
REMARK  159  A    between atoms: _436  and  _437
REMARK  160  A    between atoms: _436  and  _439
REMARK  161  A    between atoms: _439  and  _440
REMARK  162  A    between atoms: _440  and  _441
REMARK  163  A    between atoms: _441  and  _442
REMARK                            x       y       z     vdW  Elec       q    Type
REMARK                         _______ _______ _______ _____ _____    ______ ____
ROOT
ATOM      1  CG  TRP A   1       6.200  -0.184  12.101  0.00  0.00    -0.002 A 
ATOM      2  CD2 TRP A   1       4.867  -0.660  11.997  0.00  0.00    +0.013 A 
ATOM      3  CE3 TRP A   1       4.269  -1.911  12.215  0.00  0.00    +0.001 A 
ATOM      4  CZ3 TRP A   1       2.885  -2.045  12.052  0.00  0.00    +0.000 A 
ATOM      5  CH2 TRP A   1       2.107  -0.945  11.661  0.00  0.00    +0.001 A 
ATOM      6  CZ2 TRP A   1       2.655   0.288  11.477  0.00  0.00    +0.017 A 
ATOM      7  CE2 TRP A   1       4.048   0.431  11.641  0.00  0.00    +0.056 A 
ATOM      8  NE1 TRP A   1       4.858   1.528  11.517  0.00  0.00    -0.352 N 
ATOM      9  HE1 TRP A   1       4.543   2.483  11.253  0.00  0.00    +0.166 HD
ATOM     10  CD1 TRP A   1       6.162   1.163  11.798  0.00  0.00    +0.068 A 
ENDROOT
BRANCH   1  11
ATOM     11  CB  TRP A   1       7.400  -1.008  12.470  0.00  0.00    +0.053 C 
BRANCH  11  12
ATOM     12  CA  TRP A   1       8.068  -1.723  11.274  0.00  0.00    +0.137 C 
BRANCH  12  13
ATOM     13  N   TRP A   1       8.774  -0.759  10.483  0.00  0.00    -0.239 NA
ATOM     14  H   TRP A   1       8.619   0.252  10.673  0.00  0.00    +0.142 HD
ENDBRANCH  12  13
BRANCH  12  15
ATOM     15  C   TRP A   1       7.056  -2.510  10.455  0.00  0.00    +0.224 C 
ATOM     16  O   TRP A   1       6.556  -2.065   9.424  0.00  0.00    -0.287 OA
ENDBRANCH  12  15
ENDBRANCH  11  12
ENDBRANCH   1  11
TORSDOF 4
REMARK  Name = ../refined-set-2016/3oim/3oim_pocket.pdb
REMARK  163 active torsions:
REMARK  status: ('A' for Active; 'I' for Inactive)
REMARK    1  A    between atoms: _1  and  _3
REMARK    2  A    between atoms: _3  and  _4
REMARK    3  A    between atoms: _3  and  _6
REMARK    4  A    between atoms: _6  and  _7
REMARK    5  A    between atoms: _17  and  _19
REMARK    6  A    between atoms: _19  and  _20
REMARK    7  A    between atoms: _19  and  _22
REMARK    8  A    between atoms: _22  and  _23
REMARK    9  A    between atoms: _28  and  _29
REMARK   10  A    between atoms: _31  and  _33
REMARK   11  A    between atoms: _33  and  _34
REMARK   12  A    between atoms: _33  and  _36
REMARK   13  A    between atoms: _36  and  _37
REMARK   14  A    between atoms: _43  and  _45
REMARK   15  A    between atoms: _45  and  _46
REMARK   16  A    between atoms: _45  and  _48
REMARK   17  A    between atoms: _48  and  _49
REMARK   18  A    between atoms: _52  and  _53
REMARK   19  A    between atoms: _58  and  _60
REMARK   20  A    between atoms: _60  and  _61
REMARK   21  A    between atoms: _60  and  _63
REMARK   22  A    between atoms: _63  and  _64
REMARK   23  A    between atoms: _69  and  _71
REMARK   24  A    between atoms: _71  and  _72
REMARK   25  A    between atoms: _71  and  _74
REMARK   26  A    between atoms: _74  and  _75
REMARK   27  A    between atoms: _80  and  _82
REMARK   28  A    between atoms: _82  and  _83
REMARK   29  A    between atoms: _86  and  _88
REMARK   30  A    between atoms: _88  and  _89
REMARK   31  A    between atoms: _88  and  _91
REMARK   32  A    between atoms: _91  and  _92
REMARK   33  A    between atoms: _97  and  _99
REMARK   34  A    between atoms: _99  and  _100
REMARK   35  A    between atoms: _99  and  _102
REMARK   36  A    between atoms: _102  and  _103
REMARK   37  A    between atoms: _106  and  _108
REMARK   38  A    between atoms: _108  and  _109
REMARK   39  A    between atoms: _108  and  _111
REMARK   40  A    between atoms: _111  and  _112
REMARK   41  A    between atoms: _112  and  _113
REMARK   42  A    between atoms: _118  and  _120
REMARK   43  A    between atoms: _120  and  _121
REMARK   44  A    between atoms: _120  and  _123
REMARK   45  A    between atoms: _123  and  _124
REMARK   46  A    between atoms: _130  and  _132
REMARK   47  A    between atoms: _143  and  _146
REMARK   48  A    between atoms: _146  and  _147
REMARK   49  A    between atoms: _155  and  _156
REMARK   50  A    between atoms: _164  and  _166
REMARK   51  A    between atoms: _166  and  _167
REMARK   52  A    between atoms: _166  and  _169
REMARK   53  A    between atoms: _169  and  _170
REMARK   54  A    between atoms: _170  and  _171
REMARK   55  A    between atoms: _174  and  _176
REMARK   56  A    between atoms: _176  and  _177
REMARK   57  A    between atoms: _176  and  _179
REMARK   58  A    between atoms: _179  and  _180
REMARK   59  A    between atoms: _185  and  _187
REMARK   60  A    between atoms: _187  and  _188
REMARK   61  A    between atoms: _187  and  _190
REMARK   62  A    between atoms: _190  and  _191
REMARK   63  A    between atoms: _191  and  _192
REMARK   64  A    between atoms: _195  and  _197
REMARK   65  A    between atoms: _197  and  _198
REMARK   66  A    between atoms: _197  and  _200
REMARK   67  A    between atoms: _200  and  _201
REMARK   68  A    between atoms: _204  and  _206
REMARK   69  A    between atoms: _206  and  _207
REMARK   70  A    between atoms: _206  and  _209
REMARK   71  A    between atoms: _209  and  _210
REMARK   72  A    between atoms: _211  and  ZN_451
REMARK   73  A    between atoms: _215  and  _217
REMARK   74  A    between atoms: _217  and  _218
REMARK   75  A    between atoms: _217  and  _220
REMARK   76  A    between atoms: _220  and  _221
REMARK   77  A    between atoms: _224  and  _226
REMARK   78  A    between atoms: _226  and  _227
REMARK   79  A    between atoms: _226  and  _229
REMARK   80  A    between atoms: _232  and  _234
REMARK   81  A    between atoms: _234  and  _235
REMARK   82  A    between atoms: _234  and  _237
REMARK   83  A    between atoms: _237  and  _238
REMARK   84  A    between atoms: _243  and  _245
REMARK   85  A    between atoms: _245  and  _246
REMARK   86  A    between atoms: _245  and  _248
REMARK   87  A    between atoms: _248  and  _249
REMARK   88  A    between atoms: _255  and  _257
REMARK   89  A    between atoms: _257  and  _258
REMARK   90  A    between atoms: _260  and  _262
REMARK   91  A    between atoms: _262  and  _263
REMARK   92  A    between atoms: _262  and  _265
REMARK   93  A    between atoms: _265  and  _266
REMARK   94  A    between atoms: _266  and  _267
REMARK   95  A    between atoms: _267  and  _268
REMARK   96  A    between atoms: _268  and  _269
REMARK   97  A    between atoms: _273  and  _275
REMARK   98  A    between atoms: _275  and  _276
REMARK   99  A    between atoms: _275  and  _278
REMARK  100  A    between atoms: _281  and  _283
REMARK  101  A    between atoms: _283  and  _284
REMARK  102  A    between atoms: _283  and  _286
REMARK  103  A    between atoms: _286  and  _287
REMARK  104  A    between atoms: _287  and  _288
REMARK  105  A    between atoms: _293  and  _295
REMARK  106  A    between atoms: _295  and  _296
REMARK  107  A    between atoms: _295  and  _298
REMARK  108  A    between atoms: _298  and  _299
REMARK  109  A    between atoms: _302  and  _304
REMARK  110  A    between atoms: _304  and  _305
REMARK  111  A    between atoms: _308  and  _310
REMARK  112  A    between atoms: _310  and  _311
REMARK  113  A    between atoms: _310  and  _313
REMARK  114  A    between atoms: _316  and  _318
REMARK  115  A    between atoms: _318  and  _319
REMARK  116  A    between atoms: _318  and  _321
REMARK  117  A    between atoms: _321  and  _322
REMARK  118  A    between atoms: _325  and  _327
REMARK  119  A    between atoms: _327  and  _328
REMARK  120  A    between atoms: _327  and  _330
REMARK  121  A    between atoms: _330  and  _331
REMARK  122  A    between atoms: _333  and  _335
REMARK  123  A    between atoms: _335  and  _336
REMARK  124  A    between atoms: _335  and  _338
REMARK  125  A    between atoms: _338  and  _339
REMARK  126  A    between atoms: _342  and  _344
REMARK  127  A    between atoms: _344  and  _345
REMARK  128  A    between atoms: _344  and  _347
REMARK  129  A    between atoms: _347  and  _348
REMARK  130  A    between atoms: _351  and  _353
REMARK  131  A    between atoms: _353  and  _354
REMARK  132  A    between atoms: _353  and  _356
REMARK  133  A    between atoms: _356  and  _357
REMARK  134  A    between atoms: _361  and  _362
REMARK  135  A    between atoms: _368  and  _369
REMARK  136  A    between atoms: _374  and  _376
REMARK  137  A    between atoms: _376  and  _377
REMARK  138  A    between atoms: _376  and  _379
REMARK  139  A    between atoms: _379  and  _380
REMARK  140  A    between atoms: _383  and  _385
REMARK  141  A    between atoms: _385  and  _386
REMARK  142  A    between atoms: _385  and  _388
REMARK  143  A    between atoms: _388  and  _389
REMARK  144  A    between atoms: _392  and  _394
REMARK  145  A    between atoms: _394  and  _395
REMARK  146  A    between atoms: _394  and  _397
REMARK  147  A    between atoms: _399  and  _401
REMARK  148  A    between atoms: _401  and  _402
REMARK  149  A    between atoms: _401  and  _404
REMARK  150  A    between atoms: _407  and  _409
REMARK  151  A    between atoms: _409  and  _410
REMARK  152  A    between atoms: _409  and  _412
REMARK  153  A    between atoms: _412  and  _413
REMARK  154  A    between atoms: _423  and  _425
REMARK  155  A    between atoms: _425  and  _426
REMARK  156  A    between atoms: _425  and  _428
REMARK  157  A    between atoms: _428  and  _429
REMARK  158  A    between atoms: _434  and  _436
REMARK  159  A    between atoms: _436  and  _437
REMARK  160  A    between atoms: _436  and  _439
REMARK  161  A    between atoms: _439  and  _440
REMARK  162  A    between atoms: _440  and  _441
REMARK  163  A    between atoms: _441  and  _442
REMARK                            x       y       z     vdW  Elec       q    Type
REMARK                         _______ _______ _______ _____ _____    ______ ____
ROOT
ATOM      1  CG  TYR A   1       2.243  -7.218  11.747  0.00  0.00    -0.020 A 
ATOM      2  CD2 TYR A   1       1.804  -7.202  13.056  0.00  0.00    -0.001 A 
ATOM      3  CE2 TYR A   1       0.945  -6.197  13.519  0.00  0.00    +0.036 A 
ATOM      4  CZ  TYR A   1       0.480  -5.225  12.647  0.00  0.00    +0.134 A 
ATOM      5  CE1 TYR A   1       0.905  -5.235  11.338  0.00  0.00    +0.036 A 
ATOM      6  CD1 TYR A   1       1.766  -6.229  10.902  0.00  0.00    -0.001 A 
ENDROOT
BRANCH   4   7
ATOM      7  OH  TYR A   1      -0.376  -4.250  13.096  0.00  0.00    -0.506 OA
ATOM      8  HH  TYR A   1      -0.606  -3.644  12.348  0.00  0.00    +0.292 HD
ENDBRANCH   4   7
BRANCH   1   9
ATOM      9  CB  TYR A   1       3.180  -8.302  11.246  0.00  0.00    +0.051 C 
BRANCH   9  10
ATOM     10  CA  TYR A   1       4.675  -7.987  11.498  0.00  0.00    +0.137 C 
BRANCH  10  11
ATOM     11  N   TYR A   1       5.094  -6.841  10.715  0.00  0.00    -0.239 NA
ATOM     12  H   TYR A   1       5.161  -6.932   9.681  0.00  0.00    +0.142 HD
ENDBRANCH  10  11
BRANCH  10  13
ATOM     13  C   TYR A   1       5.522  -9.200  11.221  0.00  0.00    +0.224 C 
ATOM     14  O   TYR A   1       5.145 -10.305  11.588  0.00  0.00    -0.287 OA
ENDBRANCH  10  13
ENDBRANCH   9  10
ENDBRANCH   1   9
TORSDOF 5
REMARK  Name = ../refined-set-2016/3oim/3oim_pocket.pdb
REMARK  163 active torsions:
REMARK  status: ('A' for Active; 'I' for Inactive)
REMARK    1  A    between atoms: _1  and  _3
REMARK    2  A    between atoms: _3  and  _4
REMARK    3  A    between atoms: _3  and  _6
REMARK    4  A    between atoms: _6  and  _7
REMARK    5  A    between atoms: _17  and  _19
REMARK    6  A    between atoms: _19  and  _20
REMARK    7  A    between atoms: _19  and  _22
REMARK    8  A    between atoms: _22  and  _23
REMARK    9  A    between atoms: _28  and  _29
REMARK   10  A    between atoms: _31  and  _33
REMARK   11  A    between atoms: _33  and  _34
REMARK   12  A    between atoms: _33  and  _36
REMARK   13  A    between atoms: _36  and  _37
REMARK   14  A    between atoms: _43  and  _45
REMARK   15  A    between atoms: _45  and  _46
REMARK   16  A    between atoms: _45  and  _48
REMARK   17  A    between atoms: _48  and  _49
REMARK   18  A    between atoms: _52  and  _53
REMARK   19  A    between atoms: _58  and  _60
REMARK   20  A    between atoms: _60  and  _61
REMARK   21  A    between atoms: _60  and  _63
REMARK   22  A    between atoms: _63  and  _64
REMARK   23  A    between atoms: _69  and  _71
REMARK   24  A    between atoms: _71  and  _72
REMARK   25  A    between atoms: _71  and  _74
REMARK   26  A    between atoms: _74  and  _75
REMARK   27  A    between atoms: _80  and  _82
REMARK   28  A    between atoms: _82  and  _83
REMARK   29  A    between atoms: _86  and  _88
REMARK   30  A    between atoms: _88  and  _89
REMARK   31  A    between atoms: _88  and  _91
REMARK   32  A    between atoms: _91  and  _92
REMARK   33  A    between atoms: _97  and  _99
REMARK   34  A    between atoms: _99  and  _100
REMARK   35  A    between atoms: _99  and  _102
REMARK   36  A    between atoms: _102  and  _103
REMARK   37  A    between atoms: _106  and  _108
REMARK   38  A    between atoms: _108  and  _109
REMARK   39  A    between atoms: _108  and  _111
REMARK   40  A    between atoms: _111  and  _112
REMARK   41  A    between atoms: _112  and  _113
REMARK   42  A    between atoms: _118  and  _120
REMARK   43  A    between atoms: _120  and  _121
REMARK   44  A    between atoms: _120  and  _123
REMARK   45  A    between atoms: _123  and  _124
REMARK   46  A    between atoms: _130  and  _132
REMARK   47  A    between atoms: _143  and  _146
REMARK   48  A    between atoms: _146  and  _147
REMARK   49  A    between atoms: _155  and  _156
REMARK   50  A    between atoms: _164  and  _166
REMARK   51  A    between atoms: _166  and  _167
REMARK   52  A    between atoms: _166  and  _169
REMARK   53  A    between atoms: _169  and  _170
REMARK   54  A    between atoms: _170  and  _171
REMARK   55  A    between atoms: _174  and  _176
REMARK   56  A    between atoms: _176  and  _177
REMARK   57  A    between atoms: _176  and  _179
REMARK   58  A    between atoms: _179  and  _180
REMARK   59  A    between atoms: _185  and  _187
REMARK   60  A    between atoms: _187  and  _188
REMARK   61  A    between atoms: _187  and  _190
REMARK   62  A    between atoms: _190  and  _191
REMARK   63  A    between atoms: _191  and  _192
REMARK   64  A    between atoms: _195  and  _197
REMARK   65  A    between atoms: _197  and  _198
REMARK   66  A    between atoms: _197  and  _200
REMARK   67  A    between atoms: _200  and  _201
REMARK   68  A    between atoms: _204  and  _206
REMARK   69  A    between atoms: _206  and  _207
REMARK   70  A    between atoms: _206  and  _209
REMARK   71  A    between atoms: _209  and  _210
REMARK   72  A    between atoms: _211  and  ZN_451
REMARK   73  A    between atoms: _215  and  _217
REMARK   74  A    between atoms: _217  and  _218
REMARK   75  A    between atoms: _217  and  _220
REMARK   76  A    between atoms: _220  and  _221
REMARK   77  A    between atoms: _224  and  _226
REMARK   78  A    between atoms: _226  and  _227
REMARK   79  A    between atoms: _226  and  _229
REMARK   80  A    between atoms: _232  and  _234
REMARK   81  A    between atoms: _234  and  _235
REMARK   82  A    between atoms: _234  and  _237
REMARK   83  A    between atoms: _237  and  _238
REMARK   84  A    between atoms: _243  and  _245
REMARK   85  A    between atoms: _245  and  _246
REMARK   86  A    between atoms: _245  and  _248
REMARK   87  A    between atoms: _248  and  _249
REMARK   88  A    between atoms: _255  and  _257
REMARK   89  A    between atoms: _257  and  _258
REMARK   90  A    between atoms: _260  and  _262
REMARK   91  A    between atoms: _262  and  _263
REMARK   92  A    between atoms: _262  and  _265
REMARK   93  A    between atoms: _265  and  _266
REMARK   94  A    between atoms: _266  and  _267
REMARK   95  A    between atoms: _267  and  _268
REMARK   96  A    between atoms: _268  and  _269
REMARK   97  A    between atoms: _273  and  _275
REMARK   98  A    between atoms: _275  and  _276
REMARK   99  A    between atoms: _275  and  _278
REMARK  100  A    between atoms: _281  and  _283
REMARK  101  A    between atoms: _283  and  _284
REMARK  102  A    between atoms: _283  and  _286
REMARK  103  A    between atoms: _286  and  _287
REMARK  104  A    between atoms: _287  and  _288
REMARK  105  A    between atoms: _293  and  _295
REMARK  106  A    between atoms: _295  and  _296
REMARK  107  A    between atoms: _295  and  _298
REMARK  108  A    between atoms: _298  and  _299
REMARK  109  A    between atoms: _302  and  _304
REMARK  110  A    between atoms: _304  and  _305
REMARK  111  A    between atoms: _308  and  _310
REMARK  112  A    between atoms: _310  and  _311
REMARK  113  A    between atoms: _310  and  _313
REMARK  114  A    between atoms: _316  and  _318
REMARK  115  A    between atoms: _318  and  _319
REMARK  116  A    between atoms: _318  and  _321
REMARK  117  A    between atoms: _321  and  _322
REMARK  118  A    between atoms: _325  and  _327
REMARK  119  A    between atoms: _327  and  _328
REMARK  120  A    between atoms: _327  and  _330
REMARK  121  A    between atoms: _330  and  _331
REMARK  122  A    between atoms: _333  and  _335
REMARK  123  A    between atoms: _335  and  _336
REMARK  124  A    between atoms: _335  and  _338
REMARK  125  A    between atoms: _338  and  _339
REMARK  126  A    between atoms: _342  and  _344
REMARK  127  A    between atoms: _344  and  _345
REMARK  128  A    between atoms: _344  and  _347
REMARK  129  A    between atoms: _347  and  _348
REMARK  130  A    between atoms: _351  and  _353
REMARK  131  A    between atoms: _353  and  _354
REMARK  132  A    between atoms: _353  and  _356
REMARK  133  A    between atoms: _356  and  _357
REMARK  134  A    between atoms: _361  and  _362
REMARK  135  A    between atoms: _368  and  _369
REMARK  136  A    between atoms: _374  and  _376
REMARK  137  A    between atoms: _376  and  _377
REMARK  138  A    between atoms: _376  and  _379
REMARK  139  A    between atoms: _379  and  _380
REMARK  140  A    between atoms: _383  and  _385
REMARK  141  A    between atoms: _385  and  _386
REMARK  142  A    between atoms: _385  and  _388
REMARK  143  A    between atoms: _388  and  _389
REMARK  144  A    between atoms: _392  and  _394
REMARK  145  A    between atoms: _394  and  _395
REMARK  146  A    between atoms: _394  and  _397
REMARK  147  A    between atoms: _399  and  _401
REMARK  148  A    between atoms: _401  and  _402
REMARK  149  A    between atoms: _401  and  _404
REMARK  150  A    between atoms: _407  and  _409
REMARK  151  A    between atoms: _409  and  _410
REMARK  152  A    between atoms: _409  and  _412
REMARK  153  A    between atoms: _412  and  _413
REMARK  154  A    between atoms: _423  and  _425
REMARK  155  A    between atoms: _425  and  _426
REMARK  156  A    between atoms: _425  and  _428
REMARK  157  A    between atoms: _428  and  _429
REMARK  158  A    between atoms: _434  and  _436
REMARK  159  A    between atoms: _436  and  _437
REMARK  160  A    between atoms: _436  and  _439
REMARK  161  A    between atoms: _439  and  _440
REMARK  162  A    between atoms: _440  and  _441
REMARK  163  A    between atoms: _441  and  _442
REMARK                            x       y       z     vdW  Elec       q    Type
REMARK                         _______ _______ _______ _____ _____    ______ ____
ROOT
ATOM      1  CB  PHE A   1       7.702   3.048  19.165  0.00  0.00    +0.051 C 
ENDROOT
BRANCH   1   2
ATOM      2  CG  PHE A   1       7.635   3.437  17.713  0.00  0.00    -0.020 A 
ATOM      3  CD2 PHE A   1       7.388   4.748  17.345  0.00  0.00    -0.004 A 
ATOM      4  CE2 PHE A   1       7.376   5.093  16.000  0.00  0.00    -0.000 A 
ATOM      5  CZ  PHE A   1       7.637   4.124  15.033  0.00  0.00    -0.000 A 
ATOM      6  CE1 PHE A   1       7.927   2.852  15.396  0.00  0.00    -0.000 A 
ATOM      7  CD1 PHE A   1       7.931   2.519  16.733  0.00  0.00    -0.004 A 
ENDBRANCH   1   2
BRANCH   1   8
ATOM      8  CA  PHE A   1       9.044   3.414  19.831  0.00  0.00    +0.137 C 
BRANCH   8   9
ATOM      9  N   PHE A   1      10.157   2.852  19.043  0.00  0.00    -0.239 NA
ATOM     10  H   PHE A   1      10.355   1.833  19.102  0.00  0.00    +0.142 HD
ENDBRANCH   8   9
BRANCH   8  11
ATOM     11  C   PHE A   1       9.083   2.901  21.240  0.00  0.00    +0.224 C 
ATOM     12  O   PHE A   1       8.424   1.921  21.551  0.00  0.00    -0.287 OA
ENDBRANCH   8  11
ENDBRANCH   1   8
TORSDOF 4
REMARK  Name = ../refined-set-2016/3oim/3oim_pocket.pdb
REMARK  163 active torsions:
REMARK  status: ('A' for Active; 'I' for Inactive)
REMARK    1  A    between atoms: _1  and  _3
REMARK    2  A    between atoms: _3  and  _4
REMARK    3  A    between atoms: _3  and  _6
REMARK    4  A    between atoms: _6  and  _7
REMARK    5  A    between atoms: _17  and  _19
REMARK    6  A    between atoms: _19  and  _20
REMARK    7  A    between atoms: _19  and  _22
REMARK    8  A    between atoms: _22  and  _23
REMARK    9  A    between atoms: _28  and  _29
REMARK   10  A    between atoms: _31  and  _33
REMARK   11  A    between atoms: _33  and  _34
REMARK   12  A    between atoms: _33  and  _36
REMARK   13  A    between atoms: _36  and  _37
REMARK   14  A    between atoms: _43  and  _45
REMARK   15  A    between atoms: _45  and  _46
REMARK   16  A    between atoms: _45  and  _48
REMARK   17  A    between atoms: _48  and  _49
REMARK   18  A    between atoms: _52  and  _53
REMARK   19  A    between atoms: _58  and  _60
REMARK   20  A    between atoms: _60  and  _61
REMARK   21  A    between atoms: _60  and  _63
REMARK   22  A    between atoms: _63  and  _64
REMARK   23  A    between atoms: _69  and  _71
REMARK   24  A    between atoms: _71  and  _72
REMARK   25  A    between atoms: _71  and  _74
REMARK   26  A    between atoms: _74  and  _75
REMARK   27  A    between atoms: _80  and  _82
REMARK   28  A    between atoms: _82  and  _83
REMARK   29  A    between atoms: _86  and  _88
REMARK   30  A    between atoms: _88  and  _89
REMARK   31  A    between atoms: _88  and  _91
REMARK   32  A    between atoms: _91  and  _92
REMARK   33  A    between atoms: _97  and  _99
REMARK   34  A    between atoms: _99  and  _100
REMARK   35  A    between atoms: _99  and  _102
REMARK   36  A    between atoms: _102  and  _103
REMARK   37  A    between atoms: _106  and  _108
REMARK   38  A    between atoms: _108  and  _109
REMARK   39  A    between atoms: _108  and  _111
REMARK   40  A    between atoms: _111  and  _112
REMARK   41  A    between atoms: _112  and  _113
REMARK   42  A    between atoms: _118  and  _120
REMARK   43  A    between atoms: _120  and  _121
REMARK   44  A    between atoms: _120  and  _123
REMARK   45  A    between atoms: _123  and  _124
REMARK   46  A    between atoms: _130  and  _132
REMARK   47  A    between atoms: _143  and  _146
REMARK   48  A    between atoms: _146  and  _147
REMARK   49  A    between atoms: _155  and  _156
REMARK   50  A    between atoms: _164  and  _166
REMARK   51  A    between atoms: _166  and  _167
REMARK   52  A    between atoms: _166  and  _169
REMARK   53  A    between atoms: _169  and  _170
REMARK   54  A    between atoms: _170  and  _171
REMARK   55  A    between atoms: _174  and  _176
REMARK   56  A    between atoms: _176  and  _177
REMARK   57  A    between atoms: _176  and  _179
REMARK   58  A    between atoms: _179  and  _180
REMARK   59  A    between atoms: _185  and  _187
REMARK   60  A    between atoms: _187  and  _188
REMARK   61  A    between atoms: _187  and  _190
REMARK   62  A    between atoms: _190  and  _191
REMARK   63  A    between atoms: _191  and  _192
REMARK   64  A    between atoms: _195  and  _197
REMARK   65  A    between atoms: _197  and  _198
REMARK   66  A    between atoms: _197  and  _200
REMARK   67  A    between atoms: _200  and  _201
REMARK   68  A    between atoms: _204  and  _206
REMARK   69  A    between atoms: _206  and  _207
REMARK   70  A    between atoms: _206  and  _209
REMARK   71  A    between atoms: _209  and  _210
REMARK   72  A    between atoms: _211  and  ZN_451
REMARK   73  A    between atoms: _215  and  _217
REMARK   74  A    between atoms: _217  and  _218
REMARK   75  A    between atoms: _217  and  _220
REMARK   76  A    between atoms: _220  and  _221
REMARK   77  A    between atoms: _224  and  _226
REMARK   78  A    between atoms: _226  and  _227
REMARK   79  A    between atoms: _226  and  _229
REMARK   80  A    between atoms: _232  and  _234
REMARK   81  A    between atoms: _234  and  _235
REMARK   82  A    between atoms: _234  and  _237
REMARK   83  A    between atoms: _237  and  _238
REMARK   84  A    between atoms: _243  and  _245
REMARK   85  A    between atoms: _245  and  _246
REMARK   86  A    between atoms: _245  and  _248
REMARK   87  A    between atoms: _248  and  _249
REMARK   88  A    between atoms: _255  and  _257
REMARK   89  A    between atoms: _257  and  _258
REMARK   90  A    between atoms: _260  and  _262
REMARK   91  A    between atoms: _262  and  _263
REMARK   92  A    between atoms: _262  and  _265
REMARK   93  A    between atoms: _265  and  _266
REMARK   94  A    between atoms: _266  and  _267
REMARK   95  A    between atoms: _267  and  _268
REMARK   96  A    between atoms: _268  and  _269
REMARK   97  A    between atoms: _273  and  _275
REMARK   98  A    between atoms: _275  and  _276
REMARK   99  A    between atoms: _275  and  _278
REMARK  100  A    between atoms: _281  and  _283
REMARK  101  A    between atoms: _283  and  _284
REMARK  102  A    between atoms: _283  and  _286
REMARK  103  A    between atoms: _286  and  _287
REMARK  104  A    between atoms: _287  and  _288
REMARK  105  A    between atoms: _293  and  _295
REMARK  106  A    between atoms: _295  and  _296
REMARK  107  A    between atoms: _295  and  _298
REMARK  108  A    between atoms: _298  and  _299
REMARK  109  A    between atoms: _302  and  _304
REMARK  110  A    between atoms: _304  and  _305
REMARK  111  A    between atoms: _308  and  _310
REMARK  112  A    between atoms: _310  and  _311
REMARK  113  A    between atoms: _310  and  _313
REMARK  114  A    between atoms: _316  and  _318
REMARK  115  A    between atoms: _318  and  _319
REMARK  116  A    between atoms: _318  and  _321
REMARK  117  A    between atoms: _321  and  _322
REMARK  118  A    between atoms: _325  and  _327
REMARK  119  A    between atoms: _327  and  _328
REMARK  120  A    between atoms: _327  and  _330
REMARK  121  A    between atoms: _330  and  _331
REMARK  122  A    between atoms: _333  and  _335
REMARK  123  A    between atoms: _335  and  _336
REMARK  124  A    between atoms: _335  and  _338
REMARK  125  A    between atoms: _338  and  _339
REMARK  126  A    between atoms: _342  and  _344
REMARK  127  A    between atoms: _344  and  _345
REMARK  128  A    between atoms: _344  and  _347
REMARK  129  A    between atoms: _347  and  _348
REMARK  130  A    between atoms: _351  and  _353
REMARK  131  A    between atoms: _353  and  _354
REMARK  132  A    between atoms: _353  and  _356
REMARK  133  A    between atoms: _356  and  _357
REMARK  134  A    between atoms: _361  and  _362
REMARK  135  A    between atoms: _368  and  _369
REMARK  136  A    between atoms: _374  and  _376
REMARK  137  A    between atoms: _376  and  _377
REMARK  138  A    between atoms: _376  and  _379
REMARK  139  A    between atoms: _379  and  _380
REMARK  140  A    between atoms: _383  and  _385
REMARK  141  A    between atoms: _385  and  _386
REMARK  142  A    between atoms: _385  and  _388
REMARK  143  A    between atoms: _388  and  _389
REMARK  144  A    between atoms: _392  and  _394
REMARK  145  A    between atoms: _394  and  _395
REMARK  146  A    between atoms: _394  and  _397
REMARK  147  A    between atoms: _399  and  _401
REMARK  148  A    between atoms: _401  and  _402
REMARK  149  A    between atoms: _401  and  _404
REMARK  150  A    between atoms: _407  and  _409
REMARK  151  A    between atoms: _409  and  _410
REMARK  152  A    between atoms: _409  and  _412
REMARK  153  A    between atoms: _412  and  _413
REMARK  154  A    between atoms: _423  and  _425
REMARK  155  A    between atoms: _425  and  _426
REMARK  156  A    between atoms: _425  and  _428
REMARK  157  A    between atoms: _428  and  _429
REMARK  158  A    between atoms: _434  and  _436
REMARK  159  A    between atoms: _436  and  _437
REMARK  160  A    between atoms: _436  and  _439
REMARK  161  A    between atoms: _439  and  _440
REMARK  162  A    between atoms: _440  and  _441
REMARK  163  A    between atoms: _441  and  _442
REMARK                            x       y       z     vdW  Elec       q    Type
REMARK                         _______ _______ _______ _____ _____    ______ ____
ROOT
ATOM      1  C   SER A   1      -2.062  -3.329  23.030  0.00  0.00    +0.244 C 
ATOM      2  N   PRO A   2      -2.703  -4.483  22.765  0.00  0.00    -0.273 N 
ATOM      3  CA  PRO A   2      -3.871  -5.015  23.467  0.00  0.00    +0.140 C 
ATOM      4  CB  PRO A   2      -4.401  -6.031  22.450  0.00  0.00    +0.030 C 
ATOM      5  CG  PRO A   2      -3.122  -6.613  21.865  0.00  0.00    +0.024 C 
ATOM      6  CD  PRO A   2      -2.217  -5.410  21.720  0.00  0.00    +0.094 C 
ATOM      7  O   SER A   1      -1.080  -2.983  22.382  0.00  0.00    -0.273 OA
ENDROOT
BRANCH   3   8
ATOM      8  C   PRO A   2      -3.516  -5.686  24.779  0.00  0.00    +0.227 C 
ATOM      9  O   PRO A   2      -2.312  -5.717  25.134  0.00  0.00    -0.286 OA
ENDBRANCH   3   8
BRANCH   1  10
ATOM     10  CA  SER A   1      -2.619  -2.457  24.160  0.00  0.00    +0.175 C 
BRANCH  10  11
ATOM     11  N   SER A   1      -1.565  -1.590  24.660  0.00  0.00    -0.236 NA
ATOM     12  H   SER A   1      -1.059  -0.981  23.986  0.00  0.00    +0.142 HD
ENDBRANCH  10  11
BRANCH  10  13
ATOM     13  CB  SER A   1      -3.735  -1.594  23.610  0.00  0.00    +0.163 C 
BRANCH  13  14
ATOM     14  OG  SER A   1      -4.377  -0.896  24.667  0.00  0.00    -0.380 OA
ATOM     15  H   SER A   1      -4.755  -1.548  25.309  0.00  0.00    +0.211 HD
ENDBRANCH  13  14
ENDBRANCH  10  13
ENDBRANCH   1  10
TORSDOF 5
REMARK  Name = ../refined-set-2016/3oim/3oim_pocket.pdb
REMARK  163 active torsions:
REMARK  status: ('A' for Active; 'I' for Inactive)
REMARK    1  A    between atoms: _1  and  _3
REMARK    2  A    between atoms: _3  and  _4
REMARK    3  A    between atoms: _3  and  _6
REMARK    4  A    between atoms: _6  and  _7
REMARK    5  A    between atoms: _17  and  _19
REMARK    6  A    between atoms: _19  and  _20
REMARK    7  A    between atoms: _19  and  _22
REMARK    8  A    between atoms: _22  and  _23
REMARK    9  A    between atoms: _28  and  _29
REMARK   10  A    between atoms: _31  and  _33
REMARK   11  A    between atoms: _33  and  _34
REMARK   12  A    between atoms: _33  and  _36
REMARK   13  A    between atoms: _36  and  _37
REMARK   14  A    between atoms: _43  and  _45
REMARK   15  A    between atoms: _45  and  _46
REMARK   16  A    between atoms: _45  and  _48
REMARK   17  A    between atoms: _48  and  _49
REMARK   18  A    between atoms: _52  and  _53
REMARK   19  A    between atoms: _58  and  _60
REMARK   20  A    between atoms: _60  and  _61
REMARK   21  A    between atoms: _60  and  _63
REMARK   22  A    between atoms: _63  and  _64
REMARK   23  A    between atoms: _69  and  _71
REMARK   24  A    between atoms: _71  and  _72
REMARK   25  A    between atoms: _71  and  _74
REMARK   26  A    between atoms: _74  and  _75
REMARK   27  A    between atoms: _80  and  _82
REMARK   28  A    between atoms: _82  and  _83
REMARK   29  A    between atoms: _86  and  _88
REMARK   30  A    between atoms: _88  and  _89
REMARK   31  A    between atoms: _88  and  _91
REMARK   32  A    between atoms: _91  and  _92
REMARK   33  A    between atoms: _97  and  _99
REMARK   34  A    between atoms: _99  and  _100
REMARK   35  A    between atoms: _99  and  _102
REMARK   36  A    between atoms: _102  and  _103
REMARK   37  A    between atoms: _106  and  _108
REMARK   38  A    between atoms: _108  and  _109
REMARK   39  A    between atoms: _108  and  _111
REMARK   40  A    between atoms: _111  and  _112
REMARK   41  A    between atoms: _112  and  _113
REMARK   42  A    between atoms: _118  and  _120
REMARK   43  A    between atoms: _120  and  _121
REMARK   44  A    between atoms: _120  and  _123
REMARK   45  A    between atoms: _123  and  _124
REMARK   46  A    between atoms: _130  and  _132
REMARK   47  A    between atoms: _143  and  _146
REMARK   48  A    between atoms: _146  and  _147
REMARK   49  A    between atoms: _155  and  _156
REMARK   50  A    between atoms: _164  and  _166
REMARK   51  A    between atoms: _166  and  _167
REMARK   52  A    between atoms: _166  and  _169
REMARK   53  A    between atoms: _169  and  _170
REMARK   54  A    between atoms: _170  and  _171
REMARK   55  A    between atoms: _174  and  _176
REMARK   56  A    between atoms: _176  and  _177
REMARK   57  A    between atoms: _176  and  _179
REMARK   58  A    between atoms: _179  and  _180
REMARK   59  A    between atoms: _185  and  _187
REMARK   60  A    between atoms: _187  and  _188
REMARK   61  A    between atoms: _187  and  _190
REMARK   62  A    between atoms: _190  and  _191
REMARK   63  A    between atoms: _191  and  _192
REMARK   64  A    between atoms: _195  and  _197
REMARK   65  A    between atoms: _197  and  _198
REMARK   66  A    between atoms: _197  and  _200
REMARK   67  A    between atoms: _200  and  _201
REMARK   68  A    between atoms: _204  and  _206
REMARK   69  A    between atoms: _206  and  _207
REMARK   70  A    between atoms: _206  and  _209
REMARK   71  A    between atoms: _209  and  _210
REMARK   72  A    between atoms: _211  and  ZN_451
REMARK   73  A    between atoms: _215  and  _217
REMARK   74  A    between atoms: _217  and  _218
REMARK   75  A    between atoms: _217  and  _220
REMARK   76  A    between atoms: _220  and  _221
REMARK   77  A    between atoms: _224  and  _226
REMARK   78  A    between atoms: _226  and  _227
REMARK   79  A    between atoms: _226  and  _229
REMARK   80  A    between atoms: _232  and  _234
REMARK   81  A    between atoms: _234  and  _235
REMARK   82  A    between atoms: _234  and  _237
REMARK   83  A    between atoms: _237  and  _238
REMARK   84  A    between atoms: _243  and  _245
REMARK   85  A    between atoms: _245  and  _246
REMARK   86  A    between atoms: _245  and  _248
REMARK   87  A    between atoms: _248  and  _249
REMARK   88  A    between atoms: _255  and  _257
REMARK   89  A    between atoms: _257  and  _258
REMARK   90  A    between atoms: _260  and  _262
REMARK   91  A    between atoms: _262  and  _263
REMARK   92  A    between atoms: _262  and  _265
REMARK   93  A    between atoms: _265  and  _266
REMARK   94  A    between atoms: _266  and  _267
REMARK   95  A    between atoms: _267  and  _268
REMARK   96  A    between atoms: _268  and  _269
REMARK   97  A    between atoms: _273  and  _275
REMARK   98  A    between atoms: _275  and  _276
REMARK   99  A    between atoms: _275  and  _278
REMARK  100  A    between atoms: _281  and  _283
REMARK  101  A    between atoms: _283  and  _284
REMARK  102  A    between atoms: _283  and  _286
REMARK  103  A    between atoms: _286  and  _287
REMARK  104  A    between atoms: _287  and  _288
REMARK  105  A    between atoms: _293  and  _295
REMARK  106  A    between atoms: _295  and  _296
REMARK  107  A    between atoms: _295  and  _298
REMARK  108  A    between atoms: _298  and  _299
REMARK  109  A    between atoms: _302  and  _304
REMARK  110  A    between atoms: _304  and  _305
REMARK  111  A    between atoms: _308  and  _310
REMARK  112  A    between atoms: _310  and  _311
REMARK  113  A    between atoms: _310  and  _313
REMARK  114  A    between atoms: _316  and  _318
REMARK  115  A    between atoms: _318  and  _319
REMARK  116  A    between atoms: _318  and  _321
REMARK  117  A    between atoms: _321  and  _322
REMARK  118  A    between atoms: _325  and  _327
REMARK  119  A    between atoms: _327  and  _328
REMARK  120  A    between atoms: _327  and  _330
REMARK  121  A    between atoms: _330  and  _331
REMARK  122  A    between atoms: _333  and  _335
REMARK  123  A    between atoms: _335  and  _336
REMARK  124  A    between atoms: _335  and  _338
REMARK  125  A    between atoms: _338  and  _339
REMARK  126  A    between atoms: _342  and  _344
REMARK  127  A    between atoms: _344  and  _345
REMARK  128  A    between atoms: _344  and  _347
REMARK  129  A    between atoms: _347  and  _348
REMARK  130  A    between atoms: _351  and  _353
REMARK  131  A    between atoms: _353  and  _354
REMARK  132  A    between atoms: _353  and  _356
REMARK  133  A    between atoms: _356  and  _357
REMARK  134  A    between atoms: _361  and  _362
REMARK  135  A    between atoms: _368  and  _369
REMARK  136  A    between atoms: _374  and  _376
REMARK  137  A    between atoms: _376  and  _377
REMARK  138  A    between atoms: _376  and  _379
REMARK  139  A    between atoms: _379  and  _380
REMARK  140  A    between atoms: _383  and  _385
REMARK  141  A    between atoms: _385  and  _386
REMARK  142  A    between atoms: _385  and  _388
REMARK  143  A    between atoms: _388  and  _389
REMARK  144  A    between atoms: _392  and  _394
REMARK  145  A    between atoms: _394  and  _395
REMARK  146  A    between atoms: _394  and  _397
REMARK  147  A    between atoms: _399  and  _401
REMARK  148  A    between atoms: _401  and  _402
REMARK  149  A    between atoms: _401  and  _404
REMARK  150  A    between atoms: _407  and  _409
REMARK  151  A    between atoms: _409  and  _410
REMARK  152  A    between atoms: _409  and  _412
REMARK  153  A    between atoms: _412  and  _413
REMARK  154  A    between atoms: _423  and  _425
REMARK  155  A    between atoms: _425  and  _426
REMARK  156  A    between atoms: _425  and  _428
REMARK  157  A    between atoms: _428  and  _429
REMARK  158  A    between atoms: _434  and  _436
REMARK  159  A    between atoms: _436  and  _437
REMARK  160  A    between atoms: _436  and  _439
REMARK  161  A    between atoms: _439  and  _440
REMARK  162  A    between atoms: _440  and  _441
REMARK  163  A    between atoms: _441  and  _442
REMARK                            x       y       z     vdW  Elec       q    Type
REMARK                         _______ _______ _______ _____ _____    ______ ____
ROOT
ATOM      1  CB  ASN A   1      -2.584   1.907   5.303  0.00  0.00    +0.110 C 
ENDROOT
BRANCH   1   2
ATOM      2  CG  ASN A   1      -2.966   1.065   6.474  0.00  0.00    +0.221 C 
ATOM      3  ND2 ASN A   1      -3.750   1.617   7.394  0.00  0.00    -0.329 N 
ATOM      4 HD21 ASN A   1      -4.051   1.063   8.221  0.00  0.00    +0.145 HD
ATOM      5 HD22 ASN A   1      -4.063   2.603   7.287  0.00  0.00    +0.145 HD
ATOM      6  OD1 ASN A   1      -2.572  -0.097   6.559  0.00  0.00    -0.275 OA
ENDBRANCH   1   2
BRANCH   1   7
ATOM      7  CA  ASN A   1      -2.219   1.071   4.072  0.00  0.00    +0.142 C 
BRANCH   7   8
ATOM      8  N   ASN A   1      -3.337   0.232   3.624  0.00  0.00    -0.239 NA
ATOM      9  H   ASN A   1      -3.883  -0.319   4.317  0.00  0.00    +0.142 HD
ENDBRANCH   7   8
BRANCH   7  10
ATOM     10  C   ASN A   1      -0.938   0.299   4.337  0.00  0.00    +0.225 C 
ATOM     11  O   ASN A   1       0.022   0.848   4.900  0.00  0.00    -0.287 OA
ENDBRANCH   7  10
ENDBRANCH   1   7
TORSDOF 4
REMARK  Name = ../refined-set-2016/3oim/3oim_pocket.pdb
REMARK  163 active torsions:
REMARK  status: ('A' for Active; 'I' for Inactive)
REMARK    1  A    between atoms: _1  and  _3
REMARK    2  A    between atoms: _3  and  _4
REMARK    3  A    between atoms: _3  and  _6
REMARK    4  A    between atoms: _6  and  _7
REMARK    5  A    between atoms: _17  and  _19
REMARK    6  A    between atoms: _19  and  _20
REMARK    7  A    between atoms: _19  and  _22
REMARK    8  A    between atoms: _22  and  _23
REMARK    9  A    between atoms: _28  and  _29
REMARK   10  A    between atoms: _31  and  _33
REMARK   11  A    between atoms: _33  and  _34
REMARK   12  A    between atoms: _33  and  _36
REMARK   13  A    between atoms: _36  and  _37
REMARK   14  A    between atoms: _43  and  _45
REMARK   15  A    between atoms: _45  and  _46
REMARK   16  A    between atoms: _45  and  _48
REMARK   17  A    between atoms: _48  and  _49
REMARK   18  A    between atoms: _52  and  _53
REMARK   19  A    between atoms: _58  and  _60
REMARK   20  A    between atoms: _60  and  _61
REMARK   21  A    between atoms: _60  and  _63
REMARK   22  A    between atoms: _63  and  _64
REMARK   23  A    between atoms: _69  and  _71
REMARK   24  A    between atoms: _71  and  _72
REMARK   25  A    between atoms: _71  and  _74
REMARK   26  A    between atoms: _74  and  _75
REMARK   27  A    between atoms: _80  and  _82
REMARK   28  A    between atoms: _82  and  _83
REMARK   29  A    between atoms: _86  and  _88
REMARK   30  A    between atoms: _88  and  _89
REMARK   31  A    between atoms: _88  and  _91
REMARK   32  A    between atoms: _91  and  _92
REMARK   33  A    between atoms: _97  and  _99
REMARK   34  A    between atoms: _99  and  _100
REMARK   35  A    between atoms: _99  and  _102
REMARK   36  A    between atoms: _102  and  _103
REMARK   37  A    between atoms: _106  and  _108
REMARK   38  A    between atoms: _108  and  _109
REMARK   39  A    between atoms: _108  and  _111
REMARK   40  A    between atoms: _111  and  _112
REMARK   41  A    between atoms: _112  and  _113
REMARK   42  A    between atoms: _118  and  _120
REMARK   43  A    between atoms: _120  and  _121
REMARK   44  A    between atoms: _120  and  _123
REMARK   45  A    between atoms: _123  and  _124
REMARK   46  A    between atoms: _130  and  _132
REMARK   47  A    between atoms: _143  and  _146
REMARK   48  A    between atoms: _146  and  _147
REMARK   49  A    between atoms: _155  and  _156
REMARK   50  A    between atoms: _164  and  _166
REMARK   51  A    between atoms: _166  and  _167
REMARK   52  A    between atoms: _166  and  _169
REMARK   53  A    between atoms: _169  and  _170
REMARK   54  A    between atoms: _170  and  _171
REMARK   55  A    between atoms: _174  and  _176
REMARK   56  A    between atoms: _176  and  _177
REMARK   57  A    between atoms: _176  and  _179
REMARK   58  A    between atoms: _179  and  _180
REMARK   59  A    between atoms: _185  and  _187
REMARK   60  A    between atoms: _187  and  _188
REMARK   61  A    between atoms: _187  and  _190
REMARK   62  A    between atoms: _190  and  _191
REMARK   63  A    between atoms: _191  and  _192
REMARK   64  A    between atoms: _195  and  _197
REMARK   65  A    between atoms: _197  and  _198
REMARK   66  A    between atoms: _197  and  _200
REMARK   67  A    between atoms: _200  and  _201
REMARK   68  A    between atoms: _204  and  _206
REMARK   69  A    between atoms: _206  and  _207
REMARK   70  A    between atoms: _206  and  _209
REMARK   71  A    between atoms: _209  and  _210
REMARK   72  A    between atoms: _211  and  ZN_451
REMARK   73  A    between atoms: _215  and  _217
REMARK   74  A    between atoms: _217  and  _218
REMARK   75  A    between atoms: _217  and  _220
REMARK   76  A    between atoms: _220  and  _221
REMARK   77  A    between atoms: _224  and  _226
REMARK   78  A    between atoms: _226  and  _227
REMARK   79  A    between atoms: _226  and  _229
REMARK   80  A    between atoms: _232  and  _234
REMARK   81  A    between atoms: _234  and  _235
REMARK   82  A    between atoms: _234  and  _237
REMARK   83  A    between atoms: _237  and  _238
REMARK   84  A    between atoms: _243  and  _245
REMARK   85  A    between atoms: _245  and  _246
REMARK   86  A    between atoms: _245  and  _248
REMARK   87  A    between atoms: _248  and  _249
REMARK   88  A    between atoms: _255  and  _257
REMARK   89  A    between atoms: _257  and  _258
REMARK   90  A    between atoms: _260  and  _262
REMARK   91  A    between atoms: _262  and  _263
REMARK   92  A    between atoms: _262  and  _265
REMARK   93  A    between atoms: _265  and  _266
REMARK   94  A    between atoms: _266  and  _267
REMARK   95  A    between atoms: _267  and  _268
REMARK   96  A    between atoms: _268  and  _269
REMARK   97  A    between atoms: _273  and  _275
REMARK   98  A    between atoms: _275  and  _276
REMARK   99  A    between atoms: _275  and  _278
REMARK  100  A    between atoms: _281  and  _283
REMARK  101  A    between atoms: _283  and  _284
REMARK  102  A    between atoms: _283  and  _286
REMARK  103  A    between atoms: _286  and  _287
REMARK  104  A    between atoms: _287  and  _288
REMARK  105  A    between atoms: _293  and  _295
REMARK  106  A    between atoms: _295  and  _296
REMARK  107  A    between atoms: _295  and  _298
REMARK  108  A    between atoms: _298  and  _299
REMARK  109  A    between atoms: _302  and  _304
REMARK  110  A    between atoms: _304  and  _305
REMARK  111  A    between atoms: _308  and  _310
REMARK  112  A    between atoms: _310  and  _311
REMARK  113  A    between atoms: _310  and  _313
REMARK  114  A    between atoms: _316  and  _318
REMARK  115  A    between atoms: _318  and  _319
REMARK  116  A    between atoms: _318  and  _321
REMARK  117  A    between atoms: _321  and  _322
REMARK  118  A    between atoms: _325  and  _327
REMARK  119  A    between atoms: _327  and  _328
REMARK  120  A    between atoms: _327  and  _330
REMARK  121  A    between atoms: _330  and  _331
REMARK  122  A    between atoms: _333  and  _335
REMARK  123  A    between atoms: _335  and  _336
REMARK  124  A    between atoms: _335  and  _338
REMARK  125  A    between atoms: _338  and  _339
REMARK  126  A    between atoms: _342  and  _344
REMARK  127  A    between atoms: _344  and  _345
REMARK  128  A    between atoms: _344  and  _347
REMARK  129  A    between atoms: _347  and  _348
REMARK  130  A    between atoms: _351  and  _353
REMARK  131  A    between atoms: _353  and  _354
REMARK  132  A    between atoms: _353  and  _356
REMARK  133  A    between atoms: _356  and  _357
REMARK  134  A    between atoms: _361  and  _362
REMARK  135  A    between atoms: _368  and  _369
REMARK  136  A    between atoms: _374  and  _376
REMARK  137  A    between atoms: _376  and  _377
REMARK  138  A    between atoms: _376  and  _379
REMARK  139  A    between atoms: _379  and  _380
REMARK  140  A    between atoms: _383  and  _385
REMARK  141  A    between atoms: _385  and  _386
REMARK  142  A    between atoms: _385  and  _388
REMARK  143  A    between atoms: _388  and  _389
REMARK  144  A    between atoms: _392  and  _394
REMARK  145  A    between atoms: _394  and  _395
REMARK  146  A    between atoms: _394  and  _397
REMARK  147  A    between atoms: _399  and  _401
REMARK  148  A    between atoms: _401  and  _402
REMARK  149  A    between atoms: _401  and  _404
REMARK  150  A    between atoms: _407  and  _409
REMARK  151  A    between atoms: _409  and  _410
REMARK  152  A    between atoms: _409  and  _412
REMARK  153  A    between atoms: _412  and  _413
REMARK  154  A    between atoms: _423  and  _425
REMARK  155  A    between atoms: _425  and  _426
REMARK  156  A    between atoms: _425  and  _428
REMARK  157  A    between atoms: _428  and  _429
REMARK  158  A    between atoms: _434  and  _436
REMARK  159  A    between atoms: _436  and  _437
REMARK  160  A    between atoms: _436  and  _439
REMARK  161  A    between atoms: _439  and  _440
REMARK  162  A    between atoms: _440  and  _441
REMARK  163  A    between atoms: _441  and  _442
REMARK                            x       y       z     vdW  Elec       q    Type
REMARK                         _______ _______ _______ _____ _____    ______ ____
ROOT
ATOM      1  CA  HIS A   1      -0.720  -2.891   7.623  0.00  0.00    +0.151 C 
ENDROOT
BRANCH   1   2
ATOM      2  C   HIS A   1      -2.106  -3.442   7.941  0.00  0.00    +0.239 C 
ATOM      3  O   HIS A   1      -2.237  -4.302   8.815  0.00  0.00    -0.274 OA
ATOM      4  N   ALA A   2      -3.118  -2.932   7.236  0.00  0.00    -0.298 N 
ATOM      5  H   ALA A   2      -2.888  -2.178   6.557  0.00  0.00    +0.150 HD
BRANCH   4   6
ATOM      6  CA  ALA A   2      -4.516  -3.334   7.330  0.00  0.00    +0.137 C 
ATOM      7  CB  ALA A   2      -5.111  -2.955   8.698  0.00  0.00    +0.030 C 
BRANCH   6   8
ATOM      8  C   ALA A   2      -5.259  -2.635   6.192  0.00  0.00    +0.227 C 
ATOM      9  O   ALA A   2      -4.641  -1.992   5.347  0.00  0.00    -0.286 OA
ENDBRANCH   6   8
ENDBRANCH   4   6
ENDBRANCH   1   2
BRANCH   1  10
ATOM     10  N   HIS A   1      -0.660  -2.262   6.295  0.00  0.00    -0.238 NA
ATOM     11  H   HIS A   1      -1.375  -1.549   6.046  0.00  0.00    +0.142 HD
ENDBRANCH   1  10
BRANCH   1  12
ATOM     12  CB  HIS A   1      -0.278  -1.917   8.725  0.00  0.00    +0.074 C 
BRANCH  12  13
ATOM     13  CG  HIS A   1       1.131  -1.421   8.569  0.00  0.00    +0.082 A 
ATOM     14  ND1 HIS A   1       2.216  -2.259   8.666  0.00  0.00    -0.227 NA
ATOM     15  CE1 HIS A   1       3.330  -1.570   8.489  0.00  0.00    +0.199 A 
ATOM     16  NE2 HIS A   1       3.004  -0.305   8.299  0.00  0.00    -0.221 NA
ATOM     17  CD2 HIS A   1       1.634  -0.186   8.336  0.00  0.00    +0.115 A 
ENDBRANCH  12  13
ENDBRANCH   1  12
TORSDOF 6
REMARK  Name = ../refined-set-2016/3oim/3oim_pocket.pdb
REMARK  163 active torsions:
REMARK  status: ('A' for Active; 'I' for Inactive)
REMARK    1  A    between atoms: _1  and  _3
REMARK    2  A    between atoms: _3  and  _4
REMARK    3  A    between atoms: _3  and  _6
REMARK    4  A    between atoms: _6  and  _7
REMARK    5  A    between atoms: _17  and  _19
REMARK    6  A    between atoms: _19  and  _20
REMARK    7  A    between atoms: _19  and  _22
REMARK    8  A    between atoms: _22  and  _23
REMARK    9  A    between atoms: _28  and  _29
REMARK   10  A    between atoms: _31  and  _33
REMARK   11  A    between atoms: _33  and  _34
REMARK   12  A    between atoms: _33  and  _36
REMARK   13  A    between atoms: _36  and  _37
REMARK   14  A    between atoms: _43  and  _45
REMARK   15  A    between atoms: _45  and  _46
REMARK   16  A    between atoms: _45  and  _48
REMARK   17  A    between atoms: _48  and  _49
REMARK   18  A    between atoms: _52  and  _53
REMARK   19  A    between atoms: _58  and  _60
REMARK   20  A    between atoms: _60  and  _61
REMARK   21  A    between atoms: _60  and  _63
REMARK   22  A    between atoms: _63  and  _64
REMARK   23  A    between atoms: _69  and  _71
REMARK   24  A    between atoms: _71  and  _72
REMARK   25  A    between atoms: _71  and  _74
REMARK   26  A    between atoms: _74  and  _75
REMARK   27  A    between atoms: _80  and  _82
REMARK   28  A    between atoms: _82  and  _83
REMARK   29  A    between atoms: _86  and  _88
REMARK   30  A    between atoms: _88  and  _89
REMARK   31  A    between atoms: _88  and  _91
REMARK   32  A    between atoms: _91  and  _92
REMARK   33  A    between atoms: _97  and  _99
REMARK   34  A    between atoms: _99  and  _100
REMARK   35  A    between atoms: _99  and  _102
REMARK   36  A    between atoms: _102  and  _103
REMARK   37  A    between atoms: _106  and  _108
REMARK   38  A    between atoms: _108  and  _109
REMARK   39  A    between atoms: _108  and  _111
REMARK   40  A    between atoms: _111  and  _112
REMARK   41  A    between atoms: _112  and  _113
REMARK   42  A    between atoms: _118  and  _120
REMARK   43  A    between atoms: _120  and  _121
REMARK   44  A    between atoms: _120  and  _123
REMARK   45  A    between atoms: _123  and  _124
REMARK   46  A    between atoms: _130  and  _132
REMARK   47  A    between atoms: _143  and  _146
REMARK   48  A    between atoms: _146  and  _147
REMARK   49  A    between atoms: _155  and  _156
REMARK   50  A    between atoms: _164  and  _166
REMARK   51  A    between atoms: _166  and  _167
REMARK   52  A    between atoms: _166  and  _169
REMARK   53  A    between atoms: _169  and  _170
REMARK   54  A    between atoms: _170  and  _171
REMARK   55  A    between atoms: _174  and  _176
REMARK   56  A    between atoms: _176  and  _177
REMARK   57  A    between atoms: _176  and  _179
REMARK   58  A    between atoms: _179  and  _180
REMARK   59  A    between atoms: _185  and  _187
REMARK   60  A    between atoms: _187  and  _188
REMARK   61  A    between atoms: _187  and  _190
REMARK   62  A    between atoms: _190  and  _191
REMARK   63  A    between atoms: _191  and  _192
REMARK   64  A    between atoms: _195  and  _197
REMARK   65  A    between atoms: _197  and  _198
REMARK   66  A    between atoms: _197  and  _200
REMARK   67  A    between atoms: _200  and  _201
REMARK   68  A    between atoms: _204  and  _206
REMARK   69  A    between atoms: _206  and  _207
REMARK   70  A    between atoms: _206  and  _209
REMARK   71  A    between atoms: _209  and  _210
REMARK   72  A    between atoms: _211  and  ZN_451
REMARK   73  A    between atoms: _215  and  _217
REMARK   74  A    between atoms: _217  and  _218
REMARK   75  A    between atoms: _217  and  _220
REMARK   76  A    between atoms: _220  and  _221
REMARK   77  A    between atoms: _224  and  _226
REMARK   78  A    between atoms: _226  and  _227
REMARK   79  A    between atoms: _226  and  _229
REMARK   80  A    between atoms: _232  and  _234
REMARK   81  A    between atoms: _234  and  _235
REMARK   82  A    between atoms: _234  and  _237
REMARK   83  A    between atoms: _237  and  _238
REMARK   84  A    between atoms: _243  and  _245
REMARK   85  A    between atoms: _245  and  _246
REMARK   86  A    between atoms: _245  and  _248
REMARK   87  A    between atoms: _248  and  _249
REMARK   88  A    between atoms: _255  and  _257
REMARK   89  A    between atoms: _257  and  _258
REMARK   90  A    between atoms: _260  and  _262
REMARK   91  A    between atoms: _262  and  _263
REMARK   92  A    between atoms: _262  and  _265
REMARK   93  A    between atoms: _265  and  _266
REMARK   94  A    between atoms: _266  and  _267
REMARK   95  A    between atoms: _267  and  _268
REMARK   96  A    between atoms: _268  and  _269
REMARK   97  A    between atoms: _273  and  _275
REMARK   98  A    between atoms: _275  and  _276
REMARK   99  A    between atoms: _275  and  _278
REMARK  100  A    between atoms: _281  and  _283
REMARK  101  A    between atoms: _283  and  _284
REMARK  102  A    between atoms: _283  and  _286
REMARK  103  A    between atoms: _286  and  _287
REMARK  104  A    between atoms: _287  and  _288
REMARK  105  A    between atoms: _293  and  _295
REMARK  106  A    between atoms: _295  and  _296
REMARK  107  A    between atoms: _295  and  _298
REMARK  108  A    between atoms: _298  and  _299
REMARK  109  A    between atoms: _302  and  _304
REMARK  110  A    between atoms: _304  and  _305
REMARK  111  A    between atoms: _308  and  _310
REMARK  112  A    between atoms: _310  and  _311
REMARK  113  A    between atoms: _310  and  _313
REMARK  114  A    between atoms: _316  and  _318
REMARK  115  A    between atoms: _318  and  _319
REMARK  116  A    between atoms: _318  and  _321
REMARK  117  A    between atoms: _321  and  _322
REMARK  118  A    between atoms: _325  and  _327
REMARK  119  A    between atoms: _327  and  _328
REMARK  120  A    between atoms: _327  and  _330
REMARK  121  A    between atoms: _330  and  _331
REMARK  122  A    between atoms: _333  and  _335
REMARK  123  A    between atoms: _335  and  _336
REMARK  124  A    between atoms: _335  and  _338
REMARK  125  A    between atoms: _338  and  _339
REMARK  126  A    between atoms: _342  and  _344
REMARK  127  A    between atoms: _344  and  _345
REMARK  128  A    between atoms: _344  and  _347
REMARK  129  A    between atoms: _347  and  _348
REMARK  130  A    between atoms: _351  and  _353
REMARK  131  A    between atoms: _353  and  _354
REMARK  132  A    between atoms: _353  and  _356
REMARK  133  A    between atoms: _356  and  _357
REMARK  134  A    between atoms: _361  and  _362
REMARK  135  A    between atoms: _368  and  _369
REMARK  136  A    between atoms: _374  and  _376
REMARK  137  A    between atoms: _376  and  _377
REMARK  138  A    between atoms: _376  and  _379
REMARK  139  A    between atoms: _379  and  _380
REMARK  140  A    between atoms: _383  and  _385
REMARK  141  A    between atoms: _385  and  _386
REMARK  142  A    between atoms: _385  and  _388
REMARK  143  A    between atoms: _388  and  _389
REMARK  144  A    between atoms: _392  and  _394
REMARK  145  A    between atoms: _394  and  _395
REMARK  146  A    between atoms: _394  and  _397
REMARK  147  A    between atoms: _399  and  _401
REMARK  148  A    between atoms: _401  and  _402
REMARK  149  A    between atoms: _401  and  _404
REMARK  150  A    between atoms: _407  and  _409
REMARK  151  A    between atoms: _409  and  _410
REMARK  152  A    between atoms: _409  and  _412
REMARK  153  A    between atoms: _412  and  _413
REMARK  154  A    between atoms: _423  and  _425
REMARK  155  A    between atoms: _425  and  _426
REMARK  156  A    between atoms: _425  and  _428
REMARK  157  A    between atoms: _428  and  _429
REMARK  158  A    between atoms: _434  and  _436
REMARK  159  A    between atoms: _436  and  _437
REMARK  160  A    between atoms: _436  and  _439
REMARK  161  A    between atoms: _439  and  _440
REMARK  162  A    between atoms: _440  and  _441
REMARK  163  A    between atoms: _441  and  _442
REMARK                            x       y       z     vdW  Elec       q    Type
REMARK                         _______ _______ _______ _____ _____    ______ ____
ROOT
ATOM      1  CB  ASN A   1      -8.491   2.478   6.889  0.00  0.00    +0.110 C 
ENDROOT
BRANCH   1   2
ATOM      2  CG  ASN A   1      -7.413   2.287   7.900  0.00  0.00    +0.221 C 
ATOM      3  OD1 ASN A   1      -7.310   1.268   8.564  0.00  0.00    -0.275 OA
ATOM      4  ND2 ASN A   1      -6.567   3.297   8.021  0.00  0.00    -0.329 N 
ATOM      5 HD21 ASN A   1      -5.781   3.239   8.700  0.00  0.00    +0.145 HD
ATOM      6 HD22 ASN A   1      -6.688   4.149   7.437  0.00  0.00    +0.145 HD
ENDBRANCH   1   2
BRANCH   1   7
ATOM      7  CA  ASN A   1      -9.224   1.197   6.539  0.00  0.00    +0.142 C 
BRANCH   7   8
ATOM      8  N   ASN A   1      -8.386   0.277   5.785  0.00  0.00    -0.239 NA
ATOM      9  H   ASN A   1      -7.854   0.631   4.965  0.00  0.00    +0.142 HD
ENDBRANCH   7   8
BRANCH   7  10
ATOM     10  C   ASN A   1     -10.401   1.615   5.679  0.00  0.00    +0.225 C 
ATOM     11  O   ASN A   1     -10.217   2.021   4.512  0.00  0.00    -0.287 OA
ENDBRANCH   7  10
ENDBRANCH   1   7
TORSDOF 4
REMARK  Name = ../refined-set-2016/3oim/3oim_pocket.pdb
REMARK  163 active torsions:
REMARK  status: ('A' for Active; 'I' for Inactive)
REMARK    1  A    between atoms: _1  and  _3
REMARK    2  A    between atoms: _3  and  _4
REMARK    3  A    between atoms: _3  and  _6
REMARK    4  A    between atoms: _6  and  _7
REMARK    5  A    between atoms: _17  and  _19
REMARK    6  A    between atoms: _19  and  _20
REMARK    7  A    between atoms: _19  and  _22
REMARK    8  A    between atoms: _22  and  _23
REMARK    9  A    between atoms: _28  and  _29
REMARK   10  A    between atoms: _31  and  _33
REMARK   11  A    between atoms: _33  and  _34
REMARK   12  A    between atoms: _33  and  _36
REMARK   13  A    between atoms: _36  and  _37
REMARK   14  A    between atoms: _43  and  _45
REMARK   15  A    between atoms: _45  and  _46
REMARK   16  A    between atoms: _45  and  _48
REMARK   17  A    between atoms: _48  and  _49
REMARK   18  A    between atoms: _52  and  _53
REMARK   19  A    between atoms: _58  and  _60
REMARK   20  A    between atoms: _60  and  _61
REMARK   21  A    between atoms: _60  and  _63
REMARK   22  A    between atoms: _63  and  _64
REMARK   23  A    between atoms: _69  and  _71
REMARK   24  A    between atoms: _71  and  _72
REMARK   25  A    between atoms: _71  and  _74
REMARK   26  A    between atoms: _74  and  _75
REMARK   27  A    between atoms: _80  and  _82
REMARK   28  A    between atoms: _82  and  _83
REMARK   29  A    between atoms: _86  and  _88
REMARK   30  A    between atoms: _88  and  _89
REMARK   31  A    between atoms: _88  and  _91
REMARK   32  A    between atoms: _91  and  _92
REMARK   33  A    between atoms: _97  and  _99
REMARK   34  A    between atoms: _99  and  _100
REMARK   35  A    between atoms: _99  and  _102
REMARK   36  A    between atoms: _102  and  _103
REMARK   37  A    between atoms: _106  and  _108
REMARK   38  A    between atoms: _108  and  _109
REMARK   39  A    between atoms: _108  and  _111
REMARK   40  A    between atoms: _111  and  _112
REMARK   41  A    between atoms: _112  and  _113
REMARK   42  A    between atoms: _118  and  _120
REMARK   43  A    between atoms: _120  and  _121
REMARK   44  A    between atoms: _120  and  _123
REMARK   45  A    between atoms: _123  and  _124
REMARK   46  A    between atoms: _130  and  _132
REMARK   47  A    between atoms: _143  and  _146
REMARK   48  A    between atoms: _146  and  _147
REMARK   49  A    between atoms: _155  and  _156
REMARK   50  A    between atoms: _164  and  _166
REMARK   51  A    between atoms: _166  and  _167
REMARK   52  A    between atoms: _166  and  _169
REMARK   53  A    between atoms: _169  and  _170
REMARK   54  A    between atoms: _170  and  _171
REMARK   55  A    between atoms: _174  and  _176
REMARK   56  A    between atoms: _176  and  _177
REMARK   57  A    between atoms: _176  and  _179
REMARK   58  A    between atoms: _179  and  _180
REMARK   59  A    between atoms: _185  and  _187
REMARK   60  A    between atoms: _187  and  _188
REMARK   61  A    between atoms: _187  and  _190
REMARK   62  A    between atoms: _190  and  _191
REMARK   63  A    between atoms: _191  and  _192
REMARK   64  A    between atoms: _195  and  _197
REMARK   65  A    between atoms: _197  and  _198
REMARK   66  A    between atoms: _197  and  _200
REMARK   67  A    between atoms: _200  and  _201
REMARK   68  A    between atoms: _204  and  _206
REMARK   69  A    between atoms: _206  and  _207
REMARK   70  A    between atoms: _206  and  _209
REMARK   71  A    between atoms: _209  and  _210
REMARK   72  A    between atoms: _211  and  ZN_451
REMARK   73  A    between atoms: _215  and  _217
REMARK   74  A    between atoms: _217  and  _218
REMARK   75  A    between atoms: _217  and  _220
REMARK   76  A    between atoms: _220  and  _221
REMARK   77  A    between atoms: _224  and  _226
REMARK   78  A    between atoms: _226  and  _227
REMARK   79  A    between atoms: _226  and  _229
REMARK   80  A    between atoms: _232  and  _234
REMARK   81  A    between atoms: _234  and  _235
REMARK   82  A    between atoms: _234  and  _237
REMARK   83  A    between atoms: _237  and  _238
REMARK   84  A    between atoms: _243  and  _245
REMARK   85  A    between atoms: _245  and  _246
REMARK   86  A    between atoms: _245  and  _248
REMARK   87  A    between atoms: _248  and  _249
REMARK   88  A    between atoms: _255  and  _257
REMARK   89  A    between atoms: _257  and  _258
REMARK   90  A    between atoms: _260  and  _262
REMARK   91  A    between atoms: _262  and  _263
REMARK   92  A    between atoms: _262  and  _265
REMARK   93  A    between atoms: _265  and  _266
REMARK   94  A    between atoms: _266  and  _267
REMARK   95  A    between atoms: _267  and  _268
REMARK   96  A    between atoms: _268  and  _269
REMARK   97  A    between atoms: _273  and  _275
REMARK   98  A    between atoms: _275  and  _276
REMARK   99  A    between atoms: _275  and  _278
REMARK  100  A    between atoms: _281  and  _283
REMARK  101  A    between atoms: _283  and  _284
REMARK  102  A    between atoms: _283  and  _286
REMARK  103  A    between atoms: _286  and  _287
REMARK  104  A    between atoms: _287  and  _288
REMARK  105  A    between atoms: _293  and  _295
REMARK  106  A    between atoms: _295  and  _296
REMARK  107  A    between atoms: _295  and  _298
REMARK  108  A    between atoms: _298  and  _299
REMARK  109  A    between atoms: _302  and  _304
REMARK  110  A    between atoms: _304  and  _305
REMARK  111  A    between atoms: _308  and  _310
REMARK  112  A    between atoms: _310  and  _311
REMARK  113  A    between atoms: _310  and  _313
REMARK  114  A    between atoms: _316  and  _318
REMARK  115  A    between atoms: _318  and  _319
REMARK  116  A    between atoms: _318  and  _321
REMARK  117  A    between atoms: _321  and  _322
REMARK  118  A    between atoms: _325  and  _327
REMARK  119  A    between atoms: _327  and  _328
REMARK  120  A    between atoms: _327  and  _330
REMARK  121  A    between atoms: _330  and  _331
REMARK  122  A    between atoms: _333  and  _335
REMARK  123  A    between atoms: _335  and  _336
REMARK  124  A    between atoms: _335  and  _338
REMARK  125  A    between atoms: _338  and  _339
REMARK  126  A    between atoms: _342  and  _344
REMARK  127  A    between atoms: _344  and  _345
REMARK  128  A    between atoms: _344  and  _347
REMARK  129  A    between atoms: _347  and  _348
REMARK  130  A    between atoms: _351  and  _353
REMARK  131  A    between atoms: _353  and  _354
REMARK  132  A    between atoms: _353  and  _356
REMARK  133  A    between atoms: _356  and  _357
REMARK  134  A    between atoms: _361  and  _362
REMARK  135  A    between atoms: _368  and  _369
REMARK  136  A    between atoms: _374  and  _376
REMARK  137  A    between atoms: _376  and  _377
REMARK  138  A    between atoms: _376  and  _379
REMARK  139  A    between atoms: _379  and  _380
REMARK  140  A    between atoms: _383  and  _385
REMARK  141  A    between atoms: _385  and  _386
REMARK  142  A    between atoms: _385  and  _388
REMARK  143  A    between atoms: _388  and  _389
REMARK  144  A    between atoms: _392  and  _394
REMARK  145  A    between atoms: _394  and  _395
REMARK  146  A    between atoms: _394  and  _397
REMARK  147  A    between atoms: _399  and  _401
REMARK  148  A    between atoms: _401  and  _402
REMARK  149  A    between atoms: _401  and  _404
REMARK  150  A    between atoms: _407  and  _409
REMARK  151  A    between atoms: _409  and  _410
REMARK  152  A    between atoms: _409  and  _412
REMARK  153  A    between atoms: _412  and  _413
REMARK  154  A    between atoms: _423  and  _425
REMARK  155  A    between atoms: _425  and  _426
REMARK  156  A    between atoms: _425  and  _428
REMARK  157  A    between atoms: _428  and  _429
REMARK  158  A    between atoms: _434  and  _436
REMARK  159  A    between atoms: _436  and  _437
REMARK  160  A    between atoms: _436  and  _439
REMARK  161  A    between atoms: _439  and  _440
REMARK  162  A    between atoms: _440  and  _441
REMARK  163  A    between atoms: _441  and  _442
REMARK                            x       y       z     vdW  Elec       q    Type
REMARK                         _______ _______ _______ _____ _____    ______ ____
ROOT
ATOM      1  C   UNK A   4     -10.221  -1.603  10.182  0.00  0.00    +0.000 C 
ATOM      2  C   UNK A   4     -10.287  -2.891  11.002  0.00  0.00    +0.000 C 
ATOM      3  O   UNK A   4     -10.915  -2.938  12.045  0.00  0.00    +0.000 OA
ATOM      4  N   VAL A   5      -9.565  -3.896  10.522  0.00  0.00    +0.000 N 
ATOM      5  CA  VAL A   5      -9.508  -5.203  11.178  0.00  0.00    +0.000 C 
ATOM      6  C   VAL A   5      -8.069  -5.645  11.354  0.00  0.00    +0.000 C 
ATOM      7  N   UNK A   6      -7.919  -6.631  12.242  0.00  0.00    +0.000 N 
ATOM      8  H   UNK A   6      -8.722  -6.843  12.867  0.00  0.00    +0.000 HD
ATOM      9  C   UNK A   6      -6.713  -7.430  12.398  0.00  0.00    +0.000 C 
ATOM     10  C   UNK A   6      -6.051  -7.195  13.777  0.00  0.00    +0.000 C 
ATOM     11  C   UNK A   6      -5.767  -5.752  14.064  0.00  0.00    +0.000 A 
ATOM     12  C   UNK A   6      -6.592  -4.749  14.420  0.00  0.00    +0.000 A 
ATOM     13  N   UNK A   6      -5.835  -3.595  14.486  0.00  0.00    +0.000 N 
ATOM     14 ZN   UNK A   6      -6.556  -1.802  15.113  0.00  0.00    +0.000 Zn
ATOM     15  N   UNK A   4      -7.369  -0.948  13.485  0.00  0.00    +0.000 N 
ATOM     16  C   UNK A   4      -7.851   0.271  13.320  0.00  0.00    +0.000 A 
ATOM     17  N   UNK A   4      -8.377   0.354  12.107  0.00  0.00    +0.000 NA
ATOM     18  C   UNK A   4      -8.216  -0.849  11.469  0.00  0.00    +0.000 A 
ATOM     19  C   UNK A   4      -7.577  -1.660  12.341  0.00  0.00    +0.000 A 
ATOM     20  C   UNK A   6      -4.587  -3.891  14.155  0.00  0.00    +0.000 A 
ATOM     21  N   UNK A   6      -4.532  -5.190  13.874  0.00  0.00    +0.000 NA
ATOM     22  O   VAL A   5      -7.172  -5.196  10.666  0.00  0.00    +0.000 OA
ATOM     23  H   VAL A   5      -9.020  -3.749   9.648  0.00  0.00    +0.000 HD
ATOM     24  C   UNK A   4      -8.778  -1.100  10.115  0.00  0.00    +0.000 C 
ENDROOT
BRANCH  14  25
ATOM     25  N   UNK A   6      -8.028  -2.487  16.345  0.00  0.00    +0.000 N 
ATOM     26  C   UNK A   6      -7.707  -3.402  17.240  0.00  0.00    +0.000 A 
ATOM     27  N   UNK A   6      -8.812  -3.824  17.841  0.00  0.00    +0.000 NA
ATOM     28  C   UNK A   6      -9.893  -3.172  17.304  0.00  0.00    +0.000 A 
ATOM     29  C   UNK A   6      -9.404  -2.327  16.363  0.00  0.00    +0.000 A 
BRANCH  29  30
ATOM     30  C   UNK A   6     -10.120  -1.380  15.465  0.00  0.00    +0.000 C 
BRANCH  30  31
ATOM     31  C   UNK A   6     -11.612  -1.642  15.439  0.00  0.00    +0.000 C 
BRANCH  31  32
ATOM     32  C   UNK A   6     -12.327  -0.455  14.792  0.00  0.00    +0.000 C 
ATOM     33  N   UNK A   4     -13.368   0.066  15.480  0.00  0.00    +0.000 N 
ATOM     34  H   UNK A   4     -13.687  -0.424  16.340  0.00  0.00    +0.000 HD
ATOM     35  O   UNK A   6     -11.983  -0.070  13.666  0.00  0.00    +0.000 OA
BRANCH  33  36
ATOM     36  C   UNK A   4     -14.079   1.304  15.067  0.00  0.00    +0.000 C 
BRANCH  36  37
ATOM     37  C   UNK A   4     -13.463   2.449  15.840  0.00  0.00    +0.000 C 
ATOM     38  O   UNK A   4     -13.532   2.492  17.066  0.00  0.00    +0.000 OA
ATOM     39  N   VAL A   5     -12.788   3.326  15.107  0.00  0.00    +0.000 N 
ATOM     40  H   VAL A   5     -12.853   3.266  14.071  0.00  0.00    +0.000 HD
BRANCH  39  41
ATOM     41  CA  VAL A   5     -11.954   4.377  15.700  0.00  0.00    +0.000 C 
BRANCH  41  42
ATOM     42  C   VAL A   5     -12.680   5.702  15.748  0.00  0.00    +0.000 C 
ATOM     43  N   UNK A   6     -12.708   6.297  16.942  0.00  0.00    +0.000 N 
ATOM     44  H   UNK A   6     -12.234   5.840  17.747  0.00  0.00    +0.000 HD
ATOM     45  O   VAL A   5     -13.206   6.152  14.744  0.00  0.00    +0.000 OA
BRANCH  43  46
ATOM     46  C   UNK A   6     -13.391   7.582  17.149  0.00  0.00    +0.000 C 
BRANCH  46  47
ATOM     47  C   UNK A   6     -12.459   8.546  17.876  0.00  0.00    +0.000 C 
ATOM     48  O   UNK A   6     -11.680   8.137  18.712  0.00  0.00    +0.000 OA
ENDBRANCH  46  47
BRANCH  46  49
ATOM     49  C   UNK A   6     -14.649   7.390  18.024  0.00  0.00    +0.000 C 
BRANCH  49  50
ATOM     50  C   UNK A   6     -15.541   6.247  17.630  0.00  0.00    +0.000 A 
ATOM     51  N   UNK A   6     -15.201   4.938  17.889  0.00  0.00    +0.000 NA
ATOM     52  C   UNK A   6     -16.177   4.146  17.454  0.00  0.00    +0.000 A 
ATOM     53  N   UNK A   6     -17.128   4.896  16.921  0.00  0.00    +0.000 NA
ATOM     54  C   UNK A   6     -16.747   6.214  17.017  0.00  0.00    +0.000 A 
ENDBRANCH  49  50
ENDBRANCH  46  49
ENDBRANCH  43  46
ENDBRANCH  41  42
BRANCH  41  55
ATOM     55  CB  VAL A   5     -10.661   4.514  14.897  0.00  0.00    +0.000 C 
ATOM     56  CG2 VAL A   5      -9.806   5.593  15.513  0.00  0.00    +0.000 C 
ATOM     57  CG1 VAL A   5      -9.919   3.175  14.751  0.00  0.00    +0.000 C 
ENDBRANCH  41  55
ENDBRANCH  39  41
ENDBRANCH  36  37
BRANCH  36  58
ATOM     58  C   UNK A   4     -15.571   1.174  15.300  0.00  0.00    +0.000 C 
BRANCH  58  59
ATOM     59  C   UNK A   4     -16.247   0.120  14.405  0.00  0.00    +0.000 C 
ATOM     60  C   UNK A   4     -17.186  -0.740  15.201  0.00  0.00    +0.000 C 
ATOM     61  C   UNK A   4     -17.030   0.821  13.276  0.00  0.00    +0.000 C 
ENDBRANCH  58  59
ENDBRANCH  36  58
ENDBRANCH  33  36
ENDBRANCH  31  32
BRANCH  31  62
ATOM     62  N   UNK A   6     -11.859  -2.883  14.690  0.00  0.00    +0.000 N 
ATOM     63  C   LEU A   2     -12.479  -3.933  15.213  0.00  0.00    +0.000 C 
ATOM     64  O   LEU A   2     -12.869  -3.992  16.386  0.00  0.00    +0.000 OA
ATOM     65  H   UNK A   6     -11.532  -2.940  13.704  0.00  0.00    +0.000 HD
BRANCH  63  66
ATOM     66  CA  LEU A   2     -12.707  -5.050  14.240  0.00  0.00    +0.000 C 
BRANCH  66  67
ATOM     67  N   LEU A   2     -12.308  -6.322  14.821  0.00  0.00    +0.000 N 
ATOM     68  H   LEU A   2     -13.022  -6.848  15.365  0.00  0.00    +0.000 HD
ATOM     69  C   GLU A   1     -11.096  -6.863  14.708  0.00  0.00    +0.000 C 
ATOM     70  O   GLU A   1     -10.193  -6.440  13.978  0.00  0.00    +0.000 OA
BRANCH  69  71
ATOM     71  CA  GLU A   1     -10.917  -8.130  15.552  0.00  0.00    +0.000 C 
BRANCH  71  72
ATOM     72  N   GLU A   1     -10.421  -9.183  14.678  0.00  0.00    +0.000 NA
ATOM     73  H   GLU A   1      -9.770  -8.924  13.909  0.00  0.00    +0.000 HD
ENDBRANCH  71  72
BRANCH  71  74
ATOM     74  CB  GLU A   1      -9.939  -7.925  16.691  0.00  0.00    +0.000 C 
BRANCH  74  75
ATOM     75  CG  GLU A   1     -10.408  -6.963  17.791  0.00  0.00    +0.000 C 
BRANCH  75  76
ATOM     76  CD  GLU A   1      -9.448  -6.890  18.954  0.00  0.00    +0.000 C 
ATOM     77  OE2 GLU A   1      -9.371  -5.817  19.597  0.00  0.00    +0.000 OA
ATOM     78  OE1 GLU A   1      -8.837  -7.924  19.274  0.00  0.00    +0.000 OA
ENDBRANCH  75  76
ENDBRANCH  74  75
ENDBRANCH  71  74
ENDBRANCH  69  71
ENDBRANCH  66  67
BRANCH  66  79
ATOM     79  CB  LEU A   2     -14.217  -5.166  13.930  0.00  0.00    +0.000 C 
BRANCH  79  80
ATOM     80  CG  LEU A   2     -14.994  -3.898  13.546  0.00  0.00    +0.000 C 
ATOM     81  CD2 LEU A   2     -16.456  -4.288  13.285  0.00  0.00    +0.000 C 
ATOM     82  CD1 LEU A   2     -14.394  -3.246  12.318  0.00  0.00    +0.000 C 
ENDBRANCH  79  80
ENDBRANCH  66  79
ENDBRANCH  63  66
ENDBRANCH  31  62
ENDBRANCH  30  31
ENDBRANCH  29  30
ENDBRANCH  14  25
BRANCH   1  84
ATOM     83  C   UNK A   3     -11.666   0.354  10.120  0.00  0.00    +0.000 C 
ATOM     84  N   UNK A   4     -11.117  -0.653  10.803  0.00  0.00    +0.000 N 
ATOM     85  H   UNK A   4     -11.341  -0.758  11.813  0.00  0.00    +0.000 HD
ATOM     86  O   UNK A   3     -11.445   0.572   8.934  0.00  0.00    +0.000 OA
BRANCH  83  87
ATOM     87  C   UNK A   3     -12.640   1.209  10.935  0.00  0.00    +0.000 C 
BRANCH  87  90
ATOM     88  C   LEU A   2     -12.675   3.613  11.040  0.00  0.00    +0.000 C 
ATOM     89  O   LEU A   2     -12.713   3.620  12.257  0.00  0.00    +0.000 OA
ATOM     90  N   UNK A   3     -12.797   2.502  10.313  0.00  0.00    +0.000 N 
ATOM     91  H   UNK A   3     -13.006   2.567   9.296  0.00  0.00    +0.000 HD
BRANCH  88  92
ATOM     92  CA  LEU A   2     -12.437   4.884  10.276  0.00  0.00    +0.000 C 
BRANCH  92  94
ATOM     93  C   GLU A   1     -12.904   7.228  10.625  0.00  0.00    +0.000 C 
ATOM     94  N   LEU A   2     -12.733   6.010  11.152  0.00  0.00    +0.000 N 
ATOM     95  H   LEU A   2     -12.811   5.868  12.179  0.00  0.00    +0.000 HD
ATOM     96  O   GLU A   1     -12.832   7.420   9.420  0.00  0.00    +0.000 OA
BRANCH  93  97
ATOM     97  CA  GLU A   1     -13.207   8.394  11.545  0.00  0.00    +0.000 C 
BRANCH  97  98
ATOM     98  CB  GLU A   1     -11.889   9.089  12.036  0.00  0.00    +0.000 C 
ATOM     99  CG2 GLU A   1     -11.182   8.243  13.068  0.00  0.00    +0.000 C 
BRANCH  98 100
ATOM    100  CG1 GLU A   1     -10.948   9.434  10.865  0.00  0.00    +0.000 C 
ATOM    101  CD1 GLU A   1      -9.789  10.345  11.281  0.00  0.00    +0.000 C 
ENDBRANCH  98 100
ENDBRANCH  97  98
BRANCH  97 102
ATOM    102  N   GLU A   1     -14.068   8.039  12.663  0.00  0.00    +0.000 NA
ATOM    103  H   GLU A   1     -13.705   7.387  13.387  0.00  0.00    +0.000 HD
ENDBRANCH  97 102
ENDBRANCH  93  97
ENDBRANCH  92  94
BRANCH  92 104
ATOM    104  CB  LEU A   2     -10.981   4.931   9.771  0.00  0.00    +0.000 C 
BRANCH 104 105
ATOM    105  CG  LEU A   2      -9.945   4.970  10.896  0.00  0.00    +0.000 C 
BRANCH 105 106
ATOM    106  CD  LEU A   2      -9.136   3.716  11.059  0.00  0.00    +0.000 C 
ATOM    107  NE2 LEU A   2      -7.825   3.901  11.226  0.00  0.00    +0.000 N 
ATOM    108 HE21 LEU A   2      -7.208   3.090  11.434  0.00  0.00    +0.000 HD
ATOM    109 HE22 LEU A   2      -7.420   4.856  11.148  0.00  0.00    +0.000 HD
ATOM    110  OE1 LEU A   2      -9.660   2.611  11.141  0.00  0.00    +0.000 OA
ENDBRANCH 105 106
ENDBRANCH 104 105
ENDBRANCH  92 104
ENDBRANCH  88  92
ENDBRANCH  87  90
BRANCH  87 111
ATOM    111  C   UNK A   3     -13.969   0.511  11.186  0.00  0.00    +0.000 C 
BRANCH 111 112
ATOM    112  C   UNK A   3     -14.704   0.021   9.935  0.00  0.00    +0.000 A 
ATOM    113  C   UNK A   3     -15.831   0.694   9.485  0.00  0.00    +0.000 A 
ATOM    114  C   UNK A   3     -16.509   0.256   8.389  0.00  0.00    +0.000 A 
ATOM    115  C   UNK A   3     -16.122  -0.888   7.727  0.00  0.00    +0.000 A 
ATOM    116  C   UNK A   3     -15.003  -1.567   8.144  0.00  0.00    +0.000 A 
ATOM    117  C   UNK A   3     -14.325  -1.137   9.262  0.00  0.00    +0.000 A 
ENDBRANCH 111 112
ENDBRANCH  87 111
ENDBRANCH  83  87
ENDBRANCH   1  84
BRANCH   9 118
ATOM    118  C   UNK A   6      -7.156  -8.871  12.282  0.00  0.00    +0.000 C 
ATOM    119  O   UNK A   6      -8.234  -9.225  12.777  0.00  0.00    +0.000 OA
ENDBRANCH   9 118
BRANCH   5 120
ATOM    120  CB  VAL A   5     -10.217  -6.280  10.331  0.00  0.00    +0.000 C 
BRANCH 120 121
ATOM    121  CG  VAL A   5     -11.680  -5.987  10.006  0.00  0.00    +0.000 A 
ATOM    122  CD2 VAL A   5     -12.698  -6.638  10.687  0.00  0.00    +0.000 A 
ATOM    123  CE2 VAL A   5     -14.027  -6.430  10.380  0.00  0.00    +0.000 A 
ATOM    124  CZ  VAL A   5     -14.363  -5.587   9.332  0.00  0.00    +0.000 A 
ATOM    125  CE1 VAL A   5     -13.368  -4.961   8.619  0.00  0.00    +0.000 A 
ATOM    126  CD1 VAL A   5     -12.024  -5.178   8.956  0.00  0.00    +0.000 A 
ENDBRANCH 120 121
ENDBRANCH   5 120
TORSDOF 42
REMARK  Name = ../refined-set-2016/3oim/3oim_pocket.pdb
REMARK  163 active torsions:
REMARK  status: ('A' for Active; 'I' for Inactive)
REMARK    1  A    between atoms: _1  and  _3
REMARK    2  A    between atoms: _3  and  _4
REMARK    3  A    between atoms: _3  and  _6
REMARK    4  A    between atoms: _6  and  _7
REMARK    5  A    between atoms: _17  and  _19
REMARK    6  A    between atoms: _19  and  _20
REMARK    7  A    between atoms: _19  and  _22
REMARK    8  A    between atoms: _22  and  _23
REMARK    9  A    between atoms: _28  and  _29
REMARK   10  A    between atoms: _31  and  _33
REMARK   11  A    between atoms: _33  and  _34
REMARK   12  A    between atoms: _33  and  _36
REMARK   13  A    between atoms: _36  and  _37
REMARK   14  A    between atoms: _43  and  _45
REMARK   15  A    between atoms: _45  and  _46
REMARK   16  A    between atoms: _45  and  _48
REMARK   17  A    between atoms: _48  and  _49
REMARK   18  A    between atoms: _52  and  _53
REMARK   19  A    between atoms: _58  and  _60
REMARK   20  A    between atoms: _60  and  _61
REMARK   21  A    between atoms: _60  and  _63
REMARK   22  A    between atoms: _63  and  _64
REMARK   23  A    between atoms: _69  and  _71
REMARK   24  A    between atoms: _71  and  _72
REMARK   25  A    between atoms: _71  and  _74
REMARK   26  A    between atoms: _74  and  _75
REMARK   27  A    between atoms: _80  and  _82
REMARK   28  A    between atoms: _82  and  _83
REMARK   29  A    between atoms: _86  and  _88
REMARK   30  A    between atoms: _88  and  _89
REMARK   31  A    between atoms: _88  and  _91
REMARK   32  A    between atoms: _91  and  _92
REMARK   33  A    between atoms: _97  and  _99
REMARK   34  A    between atoms: _99  and  _100
REMARK   35  A    between atoms: _99  and  _102
REMARK   36  A    between atoms: _102  and  _103
REMARK   37  A    between atoms: _106  and  _108
REMARK   38  A    between atoms: _108  and  _109
REMARK   39  A    between atoms: _108  and  _111
REMARK   40  A    between atoms: _111  and  _112
REMARK   41  A    between atoms: _112  and  _113
REMARK   42  A    between atoms: _118  and  _120
REMARK   43  A    between atoms: _120  and  _121
REMARK   44  A    between atoms: _120  and  _123
REMARK   45  A    between atoms: _123  and  _124
REMARK   46  A    between atoms: _130  and  _132
REMARK   47  A    between atoms: _143  and  _146
REMARK   48  A    between atoms: _146  and  _147
REMARK   49  A    between atoms: _155  and  _156
REMARK   50  A    between atoms: _164  and  _166
REMARK   51  A    between atoms: _166  and  _167
REMARK   52  A    between atoms: _166  and  _169
REMARK   53  A    between atoms: _169  and  _170
REMARK   54  A    between atoms: _170  and  _171
REMARK   55  A    between atoms: _174  and  _176
REMARK   56  A    between atoms: _176  and  _177
REMARK   57  A    between atoms: _176  and  _179
REMARK   58  A    between atoms: _179  and  _180
REMARK   59  A    between atoms: _185  and  _187
REMARK   60  A    between atoms: _187  and  _188
REMARK   61  A    between atoms: _187  and  _190
REMARK   62  A    between atoms: _190  and  _191
REMARK   63  A    between atoms: _191  and  _192
REMARK   64  A    between atoms: _195  and  _197
REMARK   65  A    between atoms: _197  and  _198
REMARK   66  A    between atoms: _197  and  _200
REMARK   67  A    between atoms: _200  and  _201
REMARK   68  A    between atoms: _204  and  _206
REMARK   69  A    between atoms: _206  and  _207
REMARK   70  A    between atoms: _206  and  _209
REMARK   71  A    between atoms: _209  and  _210
REMARK   72  A    between atoms: _211  and  ZN_451
REMARK   73  A    between atoms: _215  and  _217
REMARK   74  A    between atoms: _217  and  _218
REMARK   75  A    between atoms: _217  and  _220
REMARK   76  A    between atoms: _220  and  _221
REMARK   77  A    between atoms: _224  and  _226
REMARK   78  A    between atoms: _226  and  _227
REMARK   79  A    between atoms: _226  and  _229
REMARK   80  A    between atoms: _232  and  _234
REMARK   81  A    between atoms: _234  and  _235
REMARK   82  A    between atoms: _234  and  _237
REMARK   83  A    between atoms: _237  and  _238
REMARK   84  A    between atoms: _243  and  _245
REMARK   85  A    between atoms: _245  and  _246
REMARK   86  A    between atoms: _245  and  _248
REMARK   87  A    between atoms: _248  and  _249
REMARK   88  A    between atoms: _255  and  _257
REMARK   89  A    between atoms: _257  and  _258
REMARK   90  A    between atoms: _260  and  _262
REMARK   91  A    between atoms: _262  and  _263
REMARK   92  A    between atoms: _262  and  _265
REMARK   93  A    between atoms: _265  and  _266
REMARK   94  A    between atoms: _266  and  _267
REMARK   95  A    between atoms: _267  and  _268
REMARK   96  A    between atoms: _268  and  _269
REMARK   97  A    between atoms: _273  and  _275
REMARK   98  A    between atoms: _275  and  _276
REMARK   99  A    between atoms: _275  and  _278
REMARK  100  A    between atoms: _281  and  _283
REMARK  101  A    between atoms: _283  and  _284
REMARK  102  A    between atoms: _283  and  _286
REMARK  103  A    between atoms: _286  and  _287
REMARK  104  A    between atoms: _287  and  _288
REMARK  105  A    between atoms: _293  and  _295
REMARK  106  A    between atoms: _295  and  _296
REMARK  107  A    between atoms: _295  and  _298
REMARK  108  A    between atoms: _298  and  _299
REMARK  109  A    between atoms: _302  and  _304
REMARK  110  A    between atoms: _304  and  _305
REMARK  111  A    between atoms: _308  and  _310
REMARK  112  A    between atoms: _310  and  _311
REMARK  113  A    between atoms: _310  and  _313
REMARK  114  A    between atoms: _316  and  _318
REMARK  115  A    between atoms: _318  and  _319
REMARK  116  A    between atoms: _318  and  _321
REMARK  117  A    between atoms: _321  and  _322
REMARK  118  A    between atoms: _325  and  _327
REMARK  119  A    between atoms: _327  and  _328
REMARK  120  A    between atoms: _327  and  _330
REMARK  121  A    between atoms: _330  and  _331
REMARK  122  A    between atoms: _333  and  _335
REMARK  123  A    between atoms: _335  and  _336
REMARK  124  A    between atoms: _335  and  _338
REMARK  125  A    between atoms: _338  and  _339
REMARK  126  A    between atoms: _342  and  _344
REMARK  127  A    between atoms: _344  and  _345
REMARK  128  A    between atoms: _344  and  _347
REMARK  129  A    between atoms: _347  and  _348
REMARK  130  A    between atoms: _351  and  _353
REMARK  131  A    between atoms: _353  and  _354
REMARK  132  A    between atoms: _353  and  _356
REMARK  133  A    between atoms: _356  and  _357
REMARK  134  A    between atoms: _361  and  _362
REMARK  135  A    between atoms: _368  and  _369
REMARK  136  A    between atoms: _374  and  _376
REMARK  137  A    between atoms: _376  and  _377
REMARK  138  A    between atoms: _376  and  _379
REMARK  139  A    between atoms: _379  and  _380
REMARK  140  A    between atoms: _383  and  _385
REMARK  141  A    between atoms: _385  and  _386
REMARK  142  A    between atoms: _385  and  _388
REMARK  143  A    between atoms: _388  and  _389
REMARK  144  A    between atoms: _392  and  _394
REMARK  145  A    between atoms: _394  and  _395
REMARK  146  A    between atoms: _394  and  _397
REMARK  147  A    between atoms: _399  and  _401
REMARK  148  A    between atoms: _401  and  _402
REMARK  149  A    between atoms: _401  and  _404
REMARK  150  A    between atoms: _407  and  _409
REMARK  151  A    between atoms: _409  and  _410
REMARK  152  A    between atoms: _409  and  _412
REMARK  153  A    between atoms: _412  and  _413
REMARK  154  A    between atoms: _423  and  _425
REMARK  155  A    between atoms: _425  and  _426
REMARK  156  A    between atoms: _425  and  _428
REMARK  157  A    between atoms: _428  and  _429
REMARK  158  A    between atoms: _434  and  _436
REMARK  159  A    between atoms: _436  and  _437
REMARK  160  A    between atoms: _436  and  _439
REMARK  161  A    between atoms: _439  and  _440
REMARK  162  A    between atoms: _440  and  _441
REMARK  163  A    between atoms: _441  and  _442
REMARK                            x       y       z     vdW  Elec       q    Type
REMARK                         _______ _______ _______ _____ _____    ______ ____
ROOT
ATOM      1  C   GLU A   1      -5.663  -8.700  20.848  0.00  0.00    +0.238 C 
ATOM      2  O   GLU A   1      -4.879  -9.270  21.616  0.00  0.00    -0.274 OA
ATOM      3  N   HIS A   2      -6.828  -8.257  21.267  0.00  0.00    -0.298 N 
ATOM      4  H   HIS A   2      -7.399  -7.638  20.656  0.00  0.00    +0.150 HD
ENDROOT
BRANCH   1   5
ATOM      5  CA  GLU A   1      -5.366  -8.513  19.359  0.00  0.00    +0.145 C 
BRANCH   5   6
ATOM      6  N   GLU A   1      -6.387  -9.199  18.555  0.00  0.00    -0.238 NA
ATOM      7  H   GLU A   1      -7.250  -8.679  18.296  0.00  0.00    +0.142 HD
ENDBRANCH   5   6
BRANCH   5   8
ATOM      8  CB  GLU A   1      -5.320  -7.015  18.981  0.00  0.00    +0.038 C 
BRANCH   8   9
ATOM      9  CG  GLU A   1      -4.953  -6.860  17.514  0.00  0.00    +0.116 C 
BRANCH   9  10
ATOM     10  CD  GLU A   1      -4.212  -5.612  17.211  0.00  0.00    +0.365 C 
ATOM     11  OE2 GLU A   1      -4.820  -4.536  17.368  0.00  0.00    -0.246 OA
ATOM     12  OE1 GLU A   1      -3.036  -5.685  16.830  0.00  0.00    -0.246 OA
ENDBRANCH   9  10
ENDBRANCH   8   9
ENDBRANCH   5   8
ENDBRANCH   1   5
BRANCH   3  13
ATOM     13  CA  HIS A   2      -7.323  -8.634  22.594  0.00  0.00    +0.143 C 
BRANCH  13  14
ATOM     14  C   HIS A   2      -7.625 -10.107  22.623  0.00  0.00    +0.227 C 
ATOM     15  O   HIS A   2      -7.974 -10.718  21.597  0.00  0.00    -0.286 OA
ENDBRANCH  13  14
BRANCH  13  16
ATOM     16  CB  HIS A   2      -8.550  -7.820  22.990  0.00  0.00    +0.075 C 
BRANCH  16  17
ATOM     17  CG  HIS A   2      -8.239  -6.367  23.138  0.00  0.00    +0.082 A 
ATOM     18  CD2 HIS A   2      -7.799  -5.667  24.210  0.00  0.00    +0.115 A 
ATOM     19  NE2 HIS A   2      -7.582  -4.381  23.787  0.00  0.00    -0.221 NA
ATOM     20  CE1 HIS A   2      -7.881  -4.290  22.510  0.00  0.00    +0.199 A 
ATOM     21  ND1 HIS A   2      -8.283  -5.481  22.089  0.00  0.00    -0.227 NA
ENDBRANCH  16  17
ENDBRANCH  13  16
ENDBRANCH   3  13
TORSDOF 9
REMARK  Name = ../refined-set-2016/3oim/3oim_pocket.pdb
REMARK  163 active torsions:
REMARK  status: ('A' for Active; 'I' for Inactive)
REMARK    1  A    between atoms: _1  and  _3
REMARK    2  A    between atoms: _3  and  _4
REMARK    3  A    between atoms: _3  and  _6
REMARK    4  A    between atoms: _6  and  _7
REMARK    5  A    between atoms: _17  and  _19
REMARK    6  A    between atoms: _19  and  _20
REMARK    7  A    between atoms: _19  and  _22
REMARK    8  A    between atoms: _22  and  _23
REMARK    9  A    between atoms: _28  and  _29
REMARK   10  A    between atoms: _31  and  _33
REMARK   11  A    between atoms: _33  and  _34
REMARK   12  A    between atoms: _33  and  _36
REMARK   13  A    between atoms: _36  and  _37
REMARK   14  A    between atoms: _43  and  _45
REMARK   15  A    between atoms: _45  and  _46
REMARK   16  A    between atoms: _45  and  _48
REMARK   17  A    between atoms: _48  and  _49
REMARK   18  A    between atoms: _52  and  _53
REMARK   19  A    between atoms: _58  and  _60
REMARK   20  A    between atoms: _60  and  _61
REMARK   21  A    between atoms: _60  and  _63
REMARK   22  A    between atoms: _63  and  _64
REMARK   23  A    between atoms: _69  and  _71
REMARK   24  A    between atoms: _71  and  _72
REMARK   25  A    between atoms: _71  and  _74
REMARK   26  A    between atoms: _74  and  _75
REMARK   27  A    between atoms: _80  and  _82
REMARK   28  A    between atoms: _82  and  _83
REMARK   29  A    between atoms: _86  and  _88
REMARK   30  A    between atoms: _88  and  _89
REMARK   31  A    between atoms: _88  and  _91
REMARK   32  A    between atoms: _91  and  _92
REMARK   33  A    between atoms: _97  and  _99
REMARK   34  A    between atoms: _99  and  _100
REMARK   35  A    between atoms: _99  and  _102
REMARK   36  A    between atoms: _102  and  _103
REMARK   37  A    between atoms: _106  and  _108
REMARK   38  A    between atoms: _108  and  _109
REMARK   39  A    between atoms: _108  and  _111
REMARK   40  A    between atoms: _111  and  _112
REMARK   41  A    between atoms: _112  and  _113
REMARK   42  A    between atoms: _118  and  _120
REMARK   43  A    between atoms: _120  and  _121
REMARK   44  A    between atoms: _120  and  _123
REMARK   45  A    between atoms: _123  and  _124
REMARK   46  A    between atoms: _130  and  _132
REMARK   47  A    between atoms: _143  and  _146
REMARK   48  A    between atoms: _146  and  _147
REMARK   49  A    between atoms: _155  and  _156
REMARK   50  A    between atoms: _164  and  _166
REMARK   51  A    between atoms: _166  and  _167
REMARK   52  A    between atoms: _166  and  _169
REMARK   53  A    between atoms: _169  and  _170
REMARK   54  A    between atoms: _170  and  _171
REMARK   55  A    between atoms: _174  and  _176
REMARK   56  A    between atoms: _176  and  _177
REMARK   57  A    between atoms: _176  and  _179
REMARK   58  A    between atoms: _179  and  _180
REMARK   59  A    between atoms: _185  and  _187
REMARK   60  A    between atoms: _187  and  _188
REMARK   61  A    between atoms: _187  and  _190
REMARK   62  A    between atoms: _190  and  _191
REMARK   63  A    between atoms: _191  and  _192
REMARK   64  A    between atoms: _195  and  _197
REMARK   65  A    between atoms: _197  and  _198
REMARK   66  A    between atoms: _197  and  _200
REMARK   67  A    between atoms: _200  and  _201
REMARK   68  A    between atoms: _204  and  _206
REMARK   69  A    between atoms: _206  and  _207
REMARK   70  A    between atoms: _206  and  _209
REMARK   71  A    between atoms: _209  and  _210
REMARK   72  A    between atoms: _211  and  ZN_451
REMARK   73  A    between atoms: _215  and  _217
REMARK   74  A    between atoms: _217  and  _218
REMARK   75  A    between atoms: _217  and  _220
REMARK   76  A    between atoms: _220  and  _221
REMARK   77  A    between atoms: _224  and  _226
REMARK   78  A    between atoms: _226  and  _227
REMARK   79  A    between atoms: _226  and  _229
REMARK   80  A    between atoms: _232  and  _234
REMARK   81  A    between atoms: _234  and  _235
REMARK   82  A    between atoms: _234  and  _237
REMARK   83  A    between atoms: _237  and  _238
REMARK   84  A    between atoms: _243  and  _245
REMARK   85  A    between atoms: _245  and  _246
REMARK   86  A    between atoms: _245  and  _248
REMARK   87  A    between atoms: _248  and  _249
REMARK   88  A    between atoms: _255  and  _257
REMARK   89  A    between atoms: _257  and  _258
REMARK   90  A    between atoms: _260  and  _262
REMARK   91  A    between atoms: _262  and  _263
REMARK   92  A    between atoms: _262  and  _265
REMARK   93  A    between atoms: _265  and  _266
REMARK   94  A    between atoms: _266  and  _267
REMARK   95  A    between atoms: _267  and  _268
REMARK   96  A    between atoms: _268  and  _269
REMARK   97  A    between atoms: _273  and  _275
REMARK   98  A    between atoms: _275  and  _276
REMARK   99  A    between atoms: _275  and  _278
REMARK  100  A    between atoms: _281  and  _283
REMARK  101  A    between atoms: _283  and  _284
REMARK  102  A    between atoms: _283  and  _286
REMARK  103  A    between atoms: _286  and  _287
REMARK  104  A    between atoms: _287  and  _288
REMARK  105  A    between atoms: _293  and  _295
REMARK  106  A    between atoms: _295  and  _296
REMARK  107  A    between atoms: _295  and  _298
REMARK  108  A    between atoms: _298  and  _299
REMARK  109  A    between atoms: _302  and  _304
REMARK  110  A    between atoms: _304  and  _305
REMARK  111  A    between atoms: _308  and  _310
REMARK  112  A    between atoms: _310  and  _311
REMARK  113  A    between atoms: _310  and  _313
REMARK  114  A    between atoms: _316  and  _318
REMARK  115  A    between atoms: _318  and  _319
REMARK  116  A    between atoms: _318  and  _321
REMARK  117  A    between atoms: _321  and  _322
REMARK  118  A    between atoms: _325  and  _327
REMARK  119  A    between atoms: _327  and  _328
REMARK  120  A    between atoms: _327  and  _330
REMARK  121  A    between atoms: _330  and  _331
REMARK  122  A    between atoms: _333  and  _335
REMARK  123  A    between atoms: _335  and  _336
REMARK  124  A    between atoms: _335  and  _338
REMARK  125  A    between atoms: _338  and  _339
REMARK  126  A    between atoms: _342  and  _344
REMARK  127  A    between atoms: _344  and  _345
REMARK  128  A    between atoms: _344  and  _347
REMARK  129  A    between atoms: _347  and  _348
REMARK  130  A    between atoms: _351  and  _353
REMARK  131  A    between atoms: _353  and  _354
REMARK  132  A    between atoms: _353  and  _356
REMARK  133  A    between atoms: _356  and  _357
REMARK  134  A    between atoms: _361  and  _362
REMARK  135  A    between atoms: _368  and  _369
REMARK  136  A    between atoms: _374  and  _376
REMARK  137  A    between atoms: _376  and  _377
REMARK  138  A    between atoms: _376  and  _379
REMARK  139  A    between atoms: _379  and  _380
REMARK  140  A    between atoms: _383  and  _385
REMARK  141  A    between atoms: _385  and  _386
REMARK  142  A    between atoms: _385  and  _388
REMARK  143  A    between atoms: _388  and  _389
REMARK  144  A    between atoms: _392  and  _394
REMARK  145  A    between atoms: _394  and  _395
REMARK  146  A    between atoms: _394  and  _397
REMARK  147  A    between atoms: _399  and  _401
REMARK  148  A    between atoms: _401  and  _402
REMARK  149  A    between atoms: _401  and  _404
REMARK  150  A    between atoms: _407  and  _409
REMARK  151  A    between atoms: _409  and  _410
REMARK  152  A    between atoms: _409  and  _412
REMARK  153  A    between atoms: _412  and  _413
REMARK  154  A    between atoms: _423  and  _425
REMARK  155  A    between atoms: _425  and  _426
REMARK  156  A    between atoms: _425  and  _428
REMARK  157  A    between atoms: _428  and  _429
REMARK  158  A    between atoms: _434  and  _436
REMARK  159  A    between atoms: _436  and  _437
REMARK  160  A    between atoms: _436  and  _439
REMARK  161  A    between atoms: _439  and  _440
REMARK  162  A    between atoms: _440  and  _441
REMARK  163  A    between atoms: _441  and  _442
REMARK                            x       y       z     vdW  Elec       q    Type
REMARK                         _______ _______ _______ _____ _____    ______ ____
ROOT
ATOM      1  CA  GLY A   2      -4.131  14.504  14.817  0.00  0.00    +0.176 C 
ENDROOT
BRANCH   1   4
ATOM      2  C   PHE A   1      -6.331  13.609  15.309  0.00  0.00    +0.239 C 
ATOM      3  O   PHE A   1      -5.875  13.009  16.294  0.00  0.00    -0.274 OA
ATOM      4  N   GLY A   2      -5.544  14.383  14.537  0.00  0.00    -0.296 N 
ATOM      5  H   GLY A   2      -5.956  14.898  13.733  0.00  0.00    +0.150 HD
BRANCH   2   6
ATOM      6  CA  PHE A   1      -7.806  13.485  14.933  0.00  0.00    +0.149 C 
BRANCH   6   7
ATOM      7  N   PHE A   1      -8.401  14.747  14.568  0.00  0.00    -0.238 NA
ATOM      8  H   PHE A   1      -8.803  14.862  13.616  0.00  0.00    +0.142 HD
ENDBRANCH   6   7
BRANCH   6   9
ATOM      9  CB  PHE A   1      -7.975  12.532  13.763  0.00  0.00    +0.053 C 
BRANCH   9  10
ATOM     10  CG  PHE A   1      -7.419  11.183  14.004  0.00  0.00    -0.020 A 
ATOM     11  CD2 PHE A   1      -8.141  10.222  14.704  0.00  0.00    -0.004 A 
ATOM     12  CE2 PHE A   1      -7.647   9.013  14.942  0.00  0.00    -0.000 A 
ATOM     13  CZ  PHE A   1      -6.393   8.694  14.497  0.00  0.00    -0.000 A 
ATOM     14  CE1 PHE A   1      -5.642   9.620  13.794  0.00  0.00    -0.000 A 
ATOM     15  CD1 PHE A   1      -6.162  10.874  13.569  0.00  0.00    -0.004 A 
ENDBRANCH   9  10
ENDBRANCH   6   9
ENDBRANCH   2   6
ENDBRANCH   1   4
BRANCH   1  16
ATOM     16  C   GLY A   2      -3.825  15.136  16.182  0.00  0.00    +0.243 C 
ATOM     17  O   GLY A   2      -2.835  14.792  16.827  0.00  0.00    -0.273 OA
ATOM     18  N   LYS A   3      -4.647  16.079  16.621  0.00  0.00    -0.298 N 
ATOM     19  H   LYS A   3      -5.415  16.421  16.009  0.00  0.00    +0.150 HD
BRANCH  18  20
ATOM     20  CA  LYS A   3      -4.481  16.642  17.960  0.00  0.00    +0.137 C 
BRANCH  20  21
ATOM     21  C   LYS A   3      -4.964  15.654  19.020  0.00  0.00    +0.227 C 
ATOM     22  O   LYS A   3      -4.356  15.515  20.085  0.00  0.00    -0.286 OA
ENDBRANCH  20  21
BRANCH  20  23
ATOM     23  CB  LYS A   3      -5.244  17.952  18.082  0.00  0.00    +0.028 C 
BRANCH  23  24
ATOM     24  CG  LYS A   3      -5.244  18.541  19.499  0.00  0.00    -0.000 C 
BRANCH  24  25
ATOM     25  CD  LYS A   3      -3.979  19.346  19.798  0.00  0.00    -0.024 C 
BRANCH  25  26
ATOM     26  CE  LYS A   3      -3.775  20.513  18.818  0.00  0.00    -0.086 C 
BRANCH  26  27
ATOM     27  NZ  LYS A   3      -4.484  21.749  19.196  0.00  0.00    +0.380 N 
ATOM     28  HZ1 LYS A   3      -4.148  22.069  20.127  0.00  0.00    -0.089 HD
ATOM     29  HZ2 LYS A   3      -5.506  21.561  19.240  0.00  0.00    -0.089 HD
ATOM     30  HZ3 LYS A   3      -4.296  22.486  18.487  0.00  0.00    -0.089 HD
ENDBRANCH  26  27
ENDBRANCH  25  26
ENDBRANCH  24  25
ENDBRANCH  23  24
ENDBRANCH  20  23
ENDBRANCH  18  20
ENDBRANCH   1  16
TORSDOF 13
REMARK  Name = ../refined-set-2016/3oim/3oim_pocket.pdb
REMARK  163 active torsions:
REMARK  status: ('A' for Active; 'I' for Inactive)
REMARK    1  A    between atoms: _1  and  _3
REMARK    2  A    between atoms: _3  and  _4
REMARK    3  A    between atoms: _3  and  _6
REMARK    4  A    between atoms: _6  and  _7
REMARK    5  A    between atoms: _17  and  _19
REMARK    6  A    between atoms: _19  and  _20
REMARK    7  A    between atoms: _19  and  _22
REMARK    8  A    between atoms: _22  and  _23
REMARK    9  A    between atoms: _28  and  _29
REMARK   10  A    between atoms: _31  and  _33
REMARK   11  A    between atoms: _33  and  _34
REMARK   12  A    between atoms: _33  and  _36
REMARK   13  A    between atoms: _36  and  _37
REMARK   14  A    between atoms: _43  and  _45
REMARK   15  A    between atoms: _45  and  _46
REMARK   16  A    between atoms: _45  and  _48
REMARK   17  A    between atoms: _48  and  _49
REMARK   18  A    between atoms: _52  and  _53
REMARK   19  A    between atoms: _58  and  _60
REMARK   20  A    between atoms: _60  and  _61
REMARK   21  A    between atoms: _60  and  _63
REMARK   22  A    between atoms: _63  and  _64
REMARK   23  A    between atoms: _69  and  _71
REMARK   24  A    between atoms: _71  and  _72
REMARK   25  A    between atoms: _71  and  _74
REMARK   26  A    between atoms: _74  and  _75
REMARK   27  A    between atoms: _80  and  _82
REMARK   28  A    between atoms: _82  and  _83
REMARK   29  A    between atoms: _86  and  _88
REMARK   30  A    between atoms: _88  and  _89
REMARK   31  A    between atoms: _88  and  _91
REMARK   32  A    between atoms: _91  and  _92
REMARK   33  A    between atoms: _97  and  _99
REMARK   34  A    between atoms: _99  and  _100
REMARK   35  A    between atoms: _99  and  _102
REMARK   36  A    between atoms: _102  and  _103
REMARK   37  A    between atoms: _106  and  _108
REMARK   38  A    between atoms: _108  and  _109
REMARK   39  A    between atoms: _108  and  _111
REMARK   40  A    between atoms: _111  and  _112
REMARK   41  A    between atoms: _112  and  _113
REMARK   42  A    between atoms: _118  and  _120
REMARK   43  A    between atoms: _120  and  _121
REMARK   44  A    between atoms: _120  and  _123
REMARK   45  A    between atoms: _123  and  _124
REMARK   46  A    between atoms: _130  and  _132
REMARK   47  A    between atoms: _143  and  _146
REMARK   48  A    between atoms: _146  and  _147
REMARK   49  A    between atoms: _155  and  _156
REMARK   50  A    between atoms: _164  and  _166
REMARK   51  A    between atoms: _166  and  _167
REMARK   52  A    between atoms: _166  and  _169
REMARK   53  A    between atoms: _169  and  _170
REMARK   54  A    between atoms: _170  and  _171
REMARK   55  A    between atoms: _174  and  _176
REMARK   56  A    between atoms: _176  and  _177
REMARK   57  A    between atoms: _176  and  _179
REMARK   58  A    between atoms: _179  and  _180
REMARK   59  A    between atoms: _185  and  _187
REMARK   60  A    between atoms: _187  and  _188
REMARK   61  A    between atoms: _187  and  _190
REMARK   62  A    between atoms: _190  and  _191
REMARK   63  A    between atoms: _191  and  _192
REMARK   64  A    between atoms: _195  and  _197
REMARK   65  A    between atoms: _197  and  _198
REMARK   66  A    between atoms: _197  and  _200
REMARK   67  A    between atoms: _200  and  _201
REMARK   68  A    between atoms: _204  and  _206
REMARK   69  A    between atoms: _206  and  _207
REMARK   70  A    between atoms: _206  and  _209
REMARK   71  A    between atoms: _209  and  _210
REMARK   72  A    between atoms: _211  and  ZN_451
REMARK   73  A    between atoms: _215  and  _217
REMARK   74  A    between atoms: _217  and  _218
REMARK   75  A    between atoms: _217  and  _220
REMARK   76  A    between atoms: _220  and  _221
REMARK   77  A    between atoms: _224  and  _226
REMARK   78  A    between atoms: _226  and  _227
REMARK   79  A    between atoms: _226  and  _229
REMARK   80  A    between atoms: _232  and  _234
REMARK   81  A    between atoms: _234  and  _235
REMARK   82  A    between atoms: _234  and  _237
REMARK   83  A    between atoms: _237  and  _238
REMARK   84  A    between atoms: _243  and  _245
REMARK   85  A    between atoms: _245  and  _246
REMARK   86  A    between atoms: _245  and  _248
REMARK   87  A    between atoms: _248  and  _249
REMARK   88  A    between atoms: _255  and  _257
REMARK   89  A    between atoms: _257  and  _258
REMARK   90  A    between atoms: _260  and  _262
REMARK   91  A    between atoms: _262  and  _263
REMARK   92  A    between atoms: _262  and  _265
REMARK   93  A    between atoms: _265  and  _266
REMARK   94  A    between atoms: _266  and  _267
REMARK   95  A    between atoms: _267  and  _268
REMARK   96  A    between atoms: _268  and  _269
REMARK   97  A    between atoms: _273  and  _275
REMARK   98  A    between atoms: _275  and  _276
REMARK   99  A    between atoms: _275  and  _278
REMARK  100  A    between atoms: _281  and  _283
REMARK  101  A    between atoms: _283  and  _284
REMARK  102  A    between atoms: _283  and  _286
REMARK  103  A    between atoms: _286  and  _287
REMARK  104  A    between atoms: _287  and  _288
REMARK  105  A    between atoms: _293  and  _295
REMARK  106  A    between atoms: _295  and  _296
REMARK  107  A    between atoms: _295  and  _298
REMARK  108  A    between atoms: _298  and  _299
REMARK  109  A    between atoms: _302  and  _304
REMARK  110  A    between atoms: _304  and  _305
REMARK  111  A    between atoms: _308  and  _310
REMARK  112  A    between atoms: _310  and  _311
REMARK  113  A    between atoms: _310  and  _313
REMARK  114  A    between atoms: _316  and  _318
REMARK  115  A    between atoms: _318  and  _319
REMARK  116  A    between atoms: _318  and  _321
REMARK  117  A    between atoms: _321  and  _322
REMARK  118  A    between atoms: _325  and  _327
REMARK  119  A    between atoms: _327  and  _328
REMARK  120  A    between atoms: _327  and  _330
REMARK  121  A    between atoms: _330  and  _331
REMARK  122  A    between atoms: _333  and  _335
REMARK  123  A    between atoms: _335  and  _336
REMARK  124  A    between atoms: _335  and  _338
REMARK  125  A    between atoms: _338  and  _339
REMARK  126  A    between atoms: _342  and  _344
REMARK  127  A    between atoms: _344  and  _345
REMARK  128  A    between atoms: _344  and  _347
REMARK  129  A    between atoms: _347  and  _348
REMARK  130  A    between atoms: _351  and  _353
REMARK  131  A    between atoms: _353  and  _354
REMARK  132  A    between atoms: _353  and  _356
REMARK  133  A    between atoms: _356  and  _357
REMARK  134  A    between atoms: _361  and  _362
REMARK  135  A    between atoms: _368  and  _369
REMARK  136  A    between atoms: _374  and  _376
REMARK  137  A    between atoms: _376  and  _377
REMARK  138  A    between atoms: _376  and  _379
REMARK  139  A    between atoms: _379  and  _380
REMARK  140  A    between atoms: _383  and  _385
REMARK  141  A    between atoms: _385  and  _386
REMARK  142  A    between atoms: _385  and  _388
REMARK  143  A    between atoms: _388  and  _389
REMARK  144  A    between atoms: _392  and  _394
REMARK  145  A    between atoms: _394  and  _395
REMARK  146  A    between atoms: _394  and  _397
REMARK  147  A    between atoms: _399  and  _401
REMARK  148  A    between atoms: _401  and  _402
REMARK  149  A    between atoms: _401  and  _404
REMARK  150  A    between atoms: _407  and  _409
REMARK  151  A    between atoms: _409  and  _410
REMARK  152  A    between atoms: _409  and  _412
REMARK  153  A    between atoms: _412  and  _413
REMARK  154  A    between atoms: _423  and  _425
REMARK  155  A    between atoms: _425  and  _426
REMARK  156  A    between atoms: _425  and  _428
REMARK  157  A    between atoms: _428  and  _429
REMARK  158  A    between atoms: _434  and  _436
REMARK  159  A    between atoms: _436  and  _437
REMARK  160  A    between atoms: _436  and  _439
REMARK  161  A    between atoms: _439  and  _440
REMARK  162  A    between atoms: _440  and  _441
REMARK  163  A    between atoms: _441  and  _442
REMARK                            x       y       z     vdW  Elec       q    Type
REMARK                         _______ _______ _______ _____ _____    ______ ____
ROOT
ATOM      1  C   VAL A   1      -2.771  11.672  20.315  0.00  0.00    +0.238 C 
ATOM      2  O   VAL A   1      -2.058  10.796  20.824  0.00  0.00    -0.274 OA
ATOM      3  N   GLN A   2      -2.642  12.981  20.560  0.00  0.00    -0.298 N 
ATOM      4  H   GLN A   2      -3.290  13.639  20.082  0.00  0.00    +0.150 HD
ENDROOT
BRANCH   1   5
ATOM      5  CA  VAL A   1      -3.892  11.264  19.377  0.00  0.00    +0.145 C 
BRANCH   5   6
ATOM      6  CB  VAL A   1      -3.286  10.562  18.118  0.00  0.00    +0.025 C 
ATOM      7  CG2 VAL A   1      -2.384  11.487  17.324  0.00  0.00    +0.002 C 
ATOM      8  CG1 VAL A   1      -4.372  10.023  17.275  0.00  0.00    +0.002 C 
ENDBRANCH   5   6
BRANCH   5   9
ATOM      9  N   VAL A   1      -4.801  12.371  19.060  0.00  0.00    -0.238 NA
ATOM     10  H   VAL A   1      -4.815  12.774  18.101  0.00  0.00    +0.142 HD
ENDBRANCH   5   9
ENDBRANCH   1   5
BRANCH   3  11
ATOM     11  CA  GLN A   2      -1.632  13.534  21.469  0.00  0.00    +0.137 C 
BRANCH  11  12
ATOM     12  C   GLN A   2      -2.149  13.631  22.902  0.00  0.00    +0.227 C 
ATOM     13  O   GLN A   2      -1.441  14.089  23.797  0.00  0.00    -0.286 OA
ENDBRANCH  11  12
BRANCH  11  14
ATOM     14  CB  GLN A   2      -1.190  14.920  20.971  0.00  0.00    +0.037 C 
BRANCH  14  15
ATOM     15  CG  GLN A   2      -0.534  14.846  19.586  0.00  0.00    +0.087 C 
BRANCH  15  16
ATOM     16  CD  GLN A   2      -0.130  16.213  19.047  0.00  0.00    +0.219 C 
ATOM     17  NE2 GLN A   2       0.656  16.941  19.825  0.00  0.00    -0.329 N 
ATOM     18 HE21 GLN A   2       0.976  16.564  20.740  0.00  0.00    +0.145 HD
ATOM     19 HE22 GLN A   2       0.953  17.890  19.521  0.00  0.00    +0.145 HD
ATOM     20  OE1 GLN A   2      -0.535  16.612  17.959  0.00  0.00    -0.275 OA
ENDBRANCH  15  16
ENDBRANCH  14  15
ENDBRANCH  11  14
ENDBRANCH   3  11
TORSDOF 8
REMARK  Name = ../refined-set-2016/3oim/3oim_pocket.pdb
REMARK  163 active torsions:
REMARK  status: ('A' for Active; 'I' for Inactive)
REMARK    1  A    between atoms: _1  and  _3
REMARK    2  A    between atoms: _3  and  _4
REMARK    3  A    between atoms: _3  and  _6
REMARK    4  A    between atoms: _6  and  _7
REMARK    5  A    between atoms: _17  and  _19
REMARK    6  A    between atoms: _19  and  _20
REMARK    7  A    between atoms: _19  and  _22
REMARK    8  A    between atoms: _22  and  _23
REMARK    9  A    between atoms: _28  and  _29
REMARK   10  A    between atoms: _31  and  _33
REMARK   11  A    between atoms: _33  and  _34
REMARK   12  A    between atoms: _33  and  _36
REMARK   13  A    between atoms: _36  and  _37
REMARK   14  A    between atoms: _43  and  _45
REMARK   15  A    between atoms: _45  and  _46
REMARK   16  A    between atoms: _45  and  _48
REMARK   17  A    between atoms: _48  and  _49
REMARK   18  A    between atoms: _52  and  _53
REMARK   19  A    between atoms: _58  and  _60
REMARK   20  A    between atoms: _60  and  _61
REMARK   21  A    between atoms: _60  and  _63
REMARK   22  A    between atoms: _63  and  _64
REMARK   23  A    between atoms: _69  and  _71
REMARK   24  A    between atoms: _71  and  _72
REMARK   25  A    between atoms: _71  and  _74
REMARK   26  A    between atoms: _74  and  _75
REMARK   27  A    between atoms: _80  and  _82
REMARK   28  A    between atoms: _82  and  _83
REMARK   29  A    between atoms: _86  and  _88
REMARK   30  A    between atoms: _88  and  _89
REMARK   31  A    between atoms: _88  and  _91
REMARK   32  A    between atoms: _91  and  _92
REMARK   33  A    between atoms: _97  and  _99
REMARK   34  A    between atoms: _99  and  _100
REMARK   35  A    between atoms: _99  and  _102
REMARK   36  A    between atoms: _102  and  _103
REMARK   37  A    between atoms: _106  and  _108
REMARK   38  A    between atoms: _108  and  _109
REMARK   39  A    between atoms: _108  and  _111
REMARK   40  A    between atoms: _111  and  _112
REMARK   41  A    between atoms: _112  and  _113
REMARK   42  A    between atoms: _118  and  _120
REMARK   43  A    between atoms: _120  and  _121
REMARK   44  A    between atoms: _120  and  _123
REMARK   45  A    between atoms: _123  and  _124
REMARK   46  A    between atoms: _130  and  _132
REMARK   47  A    between atoms: _143  and  _146
REMARK   48  A    between atoms: _146  and  _147
REMARK   49  A    between atoms: _155  and  _156
REMARK   50  A    between atoms: _164  and  _166
REMARK   51  A    between atoms: _166  and  _167
REMARK   52  A    between atoms: _166  and  _169
REMARK   53  A    between atoms: _169  and  _170
REMARK   54  A    between atoms: _170  and  _171
REMARK   55  A    between atoms: _174  and  _176
REMARK   56  A    between atoms: _176  and  _177
REMARK   57  A    between atoms: _176  and  _179
REMARK   58  A    between atoms: _179  and  _180
REMARK   59  A    between atoms: _185  and  _187
REMARK   60  A    between atoms: _187  and  _188
REMARK   61  A    between atoms: _187  and  _190
REMARK   62  A    between atoms: _190  and  _191
REMARK   63  A    between atoms: _191  and  _192
REMARK   64  A    between atoms: _195  and  _197
REMARK   65  A    between atoms: _197  and  _198
REMARK   66  A    between atoms: _197  and  _200
REMARK   67  A    between atoms: _200  and  _201
REMARK   68  A    between atoms: _204  and  _206
REMARK   69  A    between atoms: _206  and  _207
REMARK   70  A    between atoms: _206  and  _209
REMARK   71  A    between atoms: _209  and  _210
REMARK   72  A    between atoms: _211  and  ZN_451
REMARK   73  A    between atoms: _215  and  _217
REMARK   74  A    between atoms: _217  and  _218
REMARK   75  A    between atoms: _217  and  _220
REMARK   76  A    between atoms: _220  and  _221
REMARK   77  A    between atoms: _224  and  _226
REMARK   78  A    between atoms: _226  and  _227
REMARK   79  A    between atoms: _226  and  _229
REMARK   80  A    between atoms: _232  and  _234
REMARK   81  A    between atoms: _234  and  _235
REMARK   82  A    between atoms: _234  and  _237
REMARK   83  A    between atoms: _237  and  _238
REMARK   84  A    between atoms: _243  and  _245
REMARK   85  A    between atoms: _245  and  _246
REMARK   86  A    between atoms: _245  and  _248
REMARK   87  A    between atoms: _248  and  _249
REMARK   88  A    between atoms: _255  and  _257
REMARK   89  A    between atoms: _257  and  _258
REMARK   90  A    between atoms: _260  and  _262
REMARK   91  A    between atoms: _262  and  _263
REMARK   92  A    between atoms: _262  and  _265
REMARK   93  A    between atoms: _265  and  _266
REMARK   94  A    between atoms: _266  and  _267
REMARK   95  A    between atoms: _267  and  _268
REMARK   96  A    between atoms: _268  and  _269
REMARK   97  A    between atoms: _273  and  _275
REMARK   98  A    between atoms: _275  and  _276
REMARK   99  A    between atoms: _275  and  _278
REMARK  100  A    between atoms: _281  and  _283
REMARK  101  A    between atoms: _283  and  _284
REMARK  102  A    between atoms: _283  and  _286
REMARK  103  A    between atoms: _286  and  _287
REMARK  104  A    between atoms: _287  and  _288
REMARK  105  A    between atoms: _293  and  _295
REMARK  106  A    between atoms: _295  and  _296
REMARK  107  A    between atoms: _295  and  _298
REMARK  108  A    between atoms: _298  and  _299
REMARK  109  A    between atoms: _302  and  _304
REMARK  110  A    between atoms: _304  and  _305
REMARK  111  A    between atoms: _308  and  _310
REMARK  112  A    between atoms: _310  and  _311
REMARK  113  A    between atoms: _310  and  _313
REMARK  114  A    between atoms: _316  and  _318
REMARK  115  A    between atoms: _318  and  _319
REMARK  116  A    between atoms: _318  and  _321
REMARK  117  A    between atoms: _321  and  _322
REMARK  118  A    between atoms: _325  and  _327
REMARK  119  A    between atoms: _327  and  _328
REMARK  120  A    between atoms: _327  and  _330
REMARK  121  A    between atoms: _330  and  _331
REMARK  122  A    between atoms: _333  and  _335
REMARK  123  A    between atoms: _335  and  _336
REMARK  124  A    between atoms: _335  and  _338
REMARK  125  A    between atoms: _338  and  _339
REMARK  126  A    between atoms: _342  and  _344
REMARK  127  A    between atoms: _344  and  _345
REMARK  128  A    between atoms: _344  and  _347
REMARK  129  A    between atoms: _347  and  _348
REMARK  130  A    between atoms: _351  and  _353
REMARK  131  A    between atoms: _353  and  _354
REMARK  132  A    between atoms: _353  and  _356
REMARK  133  A    between atoms: _356  and  _357
REMARK  134  A    between atoms: _361  and  _362
REMARK  135  A    between atoms: _368  and  _369
REMARK  136  A    between atoms: _374  and  _376
REMARK  137  A    between atoms: _376  and  _377
REMARK  138  A    between atoms: _376  and  _379
REMARK  139  A    between atoms: _379  and  _380
REMARK  140  A    between atoms: _383  and  _385
REMARK  141  A    between atoms: _385  and  _386
REMARK  142  A    between atoms: _385  and  _388
REMARK  143  A    between atoms: _388  and  _389
REMARK  144  A    between atoms: _392  and  _394
REMARK  145  A    between atoms: _394  and  _395
REMARK  146  A    between atoms: _394  and  _397
REMARK  147  A    between atoms: _399  and  _401
REMARK  148  A    between atoms: _401  and  _402
REMARK  149  A    between atoms: _401  and  _404
REMARK  150  A    between atoms: _407  and  _409
REMARK  151  A    between atoms: _409  and  _410
REMARK  152  A    between atoms: _409  and  _412
REMARK  153  A    between atoms: _412  and  _413
REMARK  154  A    between atoms: _423  and  _425
REMARK  155  A    between atoms: _425  and  _426
REMARK  156  A    between atoms: _425  and  _428
REMARK  157  A    between atoms: _428  and  _429
REMARK  158  A    between atoms: _434  and  _436
REMARK  159  A    between atoms: _436  and  _437
REMARK  160  A    between atoms: _436  and  _439
REMARK  161  A    between atoms: _439  and  _440
REMARK  162  A    between atoms: _440  and  _441
REMARK  163  A    between atoms: _441  and  _442
REMARK                            x       y       z     vdW  Elec       q    Type
REMARK                         _______ _______ _______ _____ _____    ______ ____
ROOT
ATOM      1  C   ALA A   2     -12.252   4.751  20.687  0.00  0.00    +0.241 C 
ATOM      2  N   VAL A   3     -11.771   3.536  20.949  0.00  0.00    -0.297 N 
ATOM      3  H   VAL A   3     -11.366   3.335  21.885  0.00  0.00    +0.150 HD
ATOM      4  O   ALA A   2     -12.722   5.076  19.610  0.00  0.00    -0.273 OA
ENDROOT
BRANCH   1   5
ATOM      5  CA  ALA A   2     -12.155   5.733  21.809  0.00  0.00    +0.149 C 
ATOM      6  CB  ALA A   2     -13.521   6.128  22.294  0.00  0.00    +0.031 C 
BRANCH   5   9
ATOM      7  C   LEU A   1     -10.348   7.370  21.914  0.00  0.00    +0.238 C 
ATOM      8  O   LEU A   1     -10.031   7.083  23.068  0.00  0.00    -0.274 OA
ATOM      9  N   ALA A   2     -11.405   6.863  21.283  0.00  0.00    -0.297 N 
ATOM     10  H   ALA A   2     -11.705   7.289  20.383  0.00  0.00    +0.150 HD
BRANCH   7  11
ATOM     11  CA  LEU A   1      -9.506   8.322  21.120  0.00  0.00    +0.145 C 
BRANCH  11  12
ATOM     12  N   LEU A   1      -8.801   9.258  21.977  0.00  0.00    -0.238 NA
ATOM     13  H   LEU A   1      -8.179   8.896  22.727  0.00  0.00    +0.142 HD
ENDBRANCH  11  12
BRANCH  11  14
ATOM     14  CB  LEU A   1      -8.557   7.476  20.290  0.00  0.00    +0.026 C 
BRANCH  14  15
ATOM     15  CG  LEU A   1      -7.640   8.189  19.314  0.00  0.00    +0.002 C 
ATOM     16  CD2 LEU A   1      -8.302   9.248  18.458  0.00  0.00    +0.000 C 
ATOM     17  CD1 LEU A   1      -6.906   7.156  18.421  0.00  0.00    +0.000 C 
ENDBRANCH  14  15
ENDBRANCH  11  14
ENDBRANCH   7  11
ENDBRANCH   5   9
ENDBRANCH   1   5
BRANCH   2  18
ATOM     18  CA  VAL A   3     -11.806   2.487  19.941  0.00  0.00    +0.149 C 
BRANCH  18  19
ATOM     19  C   VAL A   3     -12.742   1.396  20.435  0.00  0.00    +0.241 C 
ATOM     20  O   VAL A   3     -12.573   0.872  21.549  0.00  0.00    -0.273 OA
ATOM     21  N   LEU A   4     -13.776   1.148  19.638  0.00  0.00    -0.298 N 
ATOM     22  H   LEU A   4     -13.911   1.750  18.801  0.00  0.00    +0.150 HD
BRANCH  21  23
ATOM     23  CA  LEU A   4     -14.732   0.070  19.881  0.00  0.00    +0.137 C 
BRANCH  23  24
ATOM     24  C   LEU A   4     -14.180  -1.196  19.178  0.00  0.00    +0.227 C 
ATOM     25  O   LEU A   4     -14.029  -1.230  17.950  0.00  0.00    -0.286 OA
ENDBRANCH  23  24
BRANCH  23  26
ATOM     26  CB  LEU A   4     -16.124   0.470  19.358  0.00  0.00    +0.028 C 
BRANCH  26  27
ATOM     27  CG  LEU A   4     -17.278  -0.497  19.537  0.00  0.00    +0.002 C 
ATOM     28  CD2 LEU A   4     -17.489  -0.754  20.984  0.00  0.00    +0.000 C 
ATOM     29  CD1 LEU A   4     -18.524   0.125  18.909  0.00  0.00    +0.000 C 
ENDBRANCH  26  27
ENDBRANCH  23  26
ENDBRANCH  21  23
ENDBRANCH  18  19
BRANCH  18  30
ATOM     30  CB  VAL A   3     -10.412   1.921  19.568  0.00  0.00    +0.027 C 
ATOM     31  CG2 VAL A   3      -9.500   3.010  19.119  0.00  0.00    +0.002 C 
ATOM     32  CG1 VAL A   3     -10.573   0.878  18.421  0.00  0.00    +0.002 C 
ENDBRANCH  18  30
ENDBRANCH   2  18
TORSDOF 13
REMARK  Name = ../refined-set-2016/3oim/3oim_pocket.pdb
REMARK  163 active torsions:
REMARK  status: ('A' for Active; 'I' for Inactive)
REMARK    1  A    between atoms: _1  and  _3
REMARK    2  A    between atoms: _3  and  _4
REMARK    3  A    between atoms: _3  and  _6
REMARK    4  A    between atoms: _6  and  _7
REMARK    5  A    between atoms: _17  and  _19
REMARK    6  A    between atoms: _19  and  _20
REMARK    7  A    between atoms: _19  and  _22
REMARK    8  A    between atoms: _22  and  _23
REMARK    9  A    between atoms: _28  and  _29
REMARK   10  A    between atoms: _31  and  _33
REMARK   11  A    between atoms: _33  and  _34
REMARK   12  A    between atoms: _33  and  _36
REMARK   13  A    between atoms: _36  and  _37
REMARK   14  A    between atoms: _43  and  _45
REMARK   15  A    between atoms: _45  and  _46
REMARK   16  A    between atoms: _45  and  _48
REMARK   17  A    between atoms: _48  and  _49
REMARK   18  A    between atoms: _52  and  _53
REMARK   19  A    between atoms: _58  and  _60
REMARK   20  A    between atoms: _60  and  _61
REMARK   21  A    between atoms: _60  and  _63
REMARK   22  A    between atoms: _63  and  _64
REMARK   23  A    between atoms: _69  and  _71
REMARK   24  A    between atoms: _71  and  _72
REMARK   25  A    between atoms: _71  and  _74
REMARK   26  A    between atoms: _74  and  _75
REMARK   27  A    between atoms: _80  and  _82
REMARK   28  A    between atoms: _82  and  _83
REMARK   29  A    between atoms: _86  and  _88
REMARK   30  A    between atoms: _88  and  _89
REMARK   31  A    between atoms: _88  and  _91
REMARK   32  A    between atoms: _91  and  _92
REMARK   33  A    between atoms: _97  and  _99
REMARK   34  A    between atoms: _99  and  _100
REMARK   35  A    between atoms: _99  and  _102
REMARK   36  A    between atoms: _102  and  _103
REMARK   37  A    between atoms: _106  and  _108
REMARK   38  A    between atoms: _108  and  _109
REMARK   39  A    between atoms: _108  and  _111
REMARK   40  A    between atoms: _111  and  _112
REMARK   41  A    between atoms: _112  and  _113
REMARK   42  A    between atoms: _118  and  _120
REMARK   43  A    between atoms: _120  and  _121
REMARK   44  A    between atoms: _120  and  _123
REMARK   45  A    between atoms: _123  and  _124
REMARK   46  A    between atoms: _130  and  _132
REMARK   47  A    between atoms: _143  and  _146
REMARK   48  A    between atoms: _146  and  _147
REMARK   49  A    between atoms: _155  and  _156
REMARK   50  A    between atoms: _164  and  _166
REMARK   51  A    between atoms: _166  and  _167
REMARK   52  A    between atoms: _166  and  _169
REMARK   53  A    between atoms: _169  and  _170
REMARK   54  A    between atoms: _170  and  _171
REMARK   55  A    between atoms: _174  and  _176
REMARK   56  A    between atoms: _176  and  _177
REMARK   57  A    between atoms: _176  and  _179
REMARK   58  A    between atoms: _179  and  _180
REMARK   59  A    between atoms: _185  and  _187
REMARK   60  A    between atoms: _187  and  _188
REMARK   61  A    between atoms: _187  and  _190
REMARK   62  A    between atoms: _190  and  _191
REMARK   63  A    between atoms: _191  and  _192
REMARK   64  A    between atoms: _195  and  _197
REMARK   65  A    between atoms: _197  and  _198
REMARK   66  A    between atoms: _197  and  _200
REMARK   67  A    between atoms: _200  and  _201
REMARK   68  A    between atoms: _204  and  _206
REMARK   69  A    between atoms: _206  and  _207
REMARK   70  A    between atoms: _206  and  _209
REMARK   71  A    between atoms: _209  and  _210
REMARK   72  A    between atoms: _211  and  ZN_451
REMARK   73  A    between atoms: _215  and  _217
REMARK   74  A    between atoms: _217  and  _218
REMARK   75  A    between atoms: _217  and  _220
REMARK   76  A    between atoms: _220  and  _221
REMARK   77  A    between atoms: _224  and  _226
REMARK   78  A    between atoms: _226  and  _227
REMARK   79  A    between atoms: _226  and  _229
REMARK   80  A    between atoms: _232  and  _234
REMARK   81  A    between atoms: _234  and  _235
REMARK   82  A    between atoms: _234  and  _237
REMARK   83  A    between atoms: _237  and  _238
REMARK   84  A    between atoms: _243  and  _245
REMARK   85  A    between atoms: _245  and  _246
REMARK   86  A    between atoms: _245  and  _248
REMARK   87  A    between atoms: _248  and  _249
REMARK   88  A    between atoms: _255  and  _257
REMARK   89  A    between atoms: _257  and  _258
REMARK   90  A    between atoms: _260  and  _262
REMARK   91  A    between atoms: _262  and  _263
REMARK   92  A    between atoms: _262  and  _265
REMARK   93  A    between atoms: _265  and  _266
REMARK   94  A    between atoms: _266  and  _267
REMARK   95  A    between atoms: _267  and  _268
REMARK   96  A    between atoms: _268  and  _269
REMARK   97  A    between atoms: _273  and  _275
REMARK   98  A    between atoms: _275  and  _276
REMARK   99  A    between atoms: _275  and  _278
REMARK  100  A    between atoms: _281  and  _283
REMARK  101  A    between atoms: _283  and  _284
REMARK  102  A    between atoms: _283  and  _286
REMARK  103  A    between atoms: _286  and  _287
REMARK  104  A    between atoms: _287  and  _288
REMARK  105  A    between atoms: _293  and  _295
REMARK  106  A    between atoms: _295  and  _296
REMARK  107  A    between atoms: _295  and  _298
REMARK  108  A    between atoms: _298  and  _299
REMARK  109  A    between atoms: _302  and  _304
REMARK  110  A    between atoms: _304  and  _305
REMARK  111  A    between atoms: _308  and  _310
REMARK  112  A    between atoms: _310  and  _311
REMARK  113  A    between atoms: _310  and  _313
REMARK  114  A    between atoms: _316  and  _318
REMARK  115  A    between atoms: _318  and  _319
REMARK  116  A    between atoms: _318  and  _321
REMARK  117  A    between atoms: _321  and  _322
REMARK  118  A    between atoms: _325  and  _327
REMARK  119  A    between atoms: _327  and  _328
REMARK  120  A    between atoms: _327  and  _330
REMARK  121  A    between atoms: _330  and  _331
REMARK  122  A    between atoms: _333  and  _335
REMARK  123  A    between atoms: _335  and  _336
REMARK  124  A    between atoms: _335  and  _338
REMARK  125  A    between atoms: _338  and  _339
REMARK  126  A    between atoms: _342  and  _344
REMARK  127  A    between atoms: _344  and  _345
REMARK  128  A    between atoms: _344  and  _347
REMARK  129  A    between atoms: _347  and  _348
REMARK  130  A    between atoms: _351  and  _353
REMARK  131  A    between atoms: _353  and  _354
REMARK  132  A    between atoms: _353  and  _356
REMARK  133  A    between atoms: _356  and  _357
REMARK  134  A    between atoms: _361  and  _362
REMARK  135  A    between atoms: _368  and  _369
REMARK  136  A    between atoms: _374  and  _376
REMARK  137  A    between atoms: _376  and  _377
REMARK  138  A    between atoms: _376  and  _379
REMARK  139  A    between atoms: _379  and  _380
REMARK  140  A    between atoms: _383  and  _385
REMARK  141  A    between atoms: _385  and  _386
REMARK  142  A    between atoms: _385  and  _388
REMARK  143  A    between atoms: _388  and  _389
REMARK  144  A    between atoms: _392  and  _394
REMARK  145  A    between atoms: _394  and  _395
REMARK  146  A    between atoms: _394  and  _397
REMARK  147  A    between atoms: _399  and  _401
REMARK  148  A    between atoms: _401  and  _402
REMARK  149  A    between atoms: _401  and  _404
REMARK  150  A    between atoms: _407  and  _409
REMARK  151  A    between atoms: _409  and  _410
REMARK  152  A    between atoms: _409  and  _412
REMARK  153  A    between atoms: _412  and  _413
REMARK  154  A    between atoms: _423  and  _425
REMARK  155  A    between atoms: _425  and  _426
REMARK  156  A    between atoms: _425  and  _428
REMARK  157  A    between atoms: _428  and  _429
REMARK  158  A    between atoms: _434  and  _436
REMARK  159  A    between atoms: _436  and  _437
REMARK  160  A    between atoms: _436  and  _439
REMARK  161  A    between atoms: _439  and  _440
REMARK  162  A    between atoms: _440  and  _441
REMARK  163  A    between atoms: _441  and  _442
REMARK                            x       y       z     vdW  Elec       q    Type
REMARK                         _______ _______ _______ _____ _____    ______ ____
ROOT
ATOM      1  C   THR A   4       1.496   0.822  16.353  0.00  0.00    +0.246 C 
ATOM      2  O   THR A   4       1.019   1.789  16.944  0.00  0.00    -0.273 OA
ATOM      3  N   PRO A   5       2.761   0.791  15.926  0.00  0.00    -0.272 N 
ATOM      4  CA  PRO A   5       3.564   2.020  16.034  0.00  0.00    +0.152 C 
ATOM      5  CB  PRO A   5       4.786   1.674  15.205  0.00  0.00    +0.031 C 
ATOM      6  CG  PRO A   5       4.955   0.163  15.439  0.00  0.00    +0.024 C 
ATOM      7  CD  PRO A   5       3.522  -0.328  15.329  0.00  0.00    +0.094 C 
ENDROOT
BRANCH   4   8
ATOM      8  C   PRO A   5       2.776   3.201  15.465  0.00  0.00    +0.244 C 
ATOM      9  N   PRO A   6       2.849   4.379  16.077  0.00  0.00    -0.272 N 
ATOM     10  CA  PRO A   6       3.737   4.768  17.189  0.00  0.00    +0.152 C 
ATOM     11  CB  PRO A   6       3.836   6.280  17.021  0.00  0.00    +0.031 C 
ATOM     12  CG  PRO A   6       2.541   6.689  16.403  0.00  0.00    +0.024 C 
ATOM     13  CD  PRO A   6       2.155   5.542  15.490  0.00  0.00    +0.094 C 
ATOM     14  O   PRO A   5       2.132   3.018  14.417  0.00  0.00    -0.273 OA
BRANCH  10  15
ATOM     15  C   PRO A   6       3.234   4.413  18.610  0.00  0.00    +0.241 C 
ATOM     16  O   PRO A   6       3.826   4.890  19.581  0.00  0.00    -0.273 OA
ATOM     17  N   LEU A   7       2.200   3.584  18.746  0.00  0.00    -0.297 N 
ATOM     18  H   LEU A   7       1.635   3.336  17.909  0.00  0.00    +0.150 HD
BRANCH  17  19
ATOM     19  CA  LEU A   7       1.841   3.015  20.043  0.00  0.00    +0.149 C 
BRANCH  19  20
ATOM     20  C   LEU A   7       1.459   4.057  21.082  0.00  0.00    +0.241 C 
ATOM     21  O   LEU A   7       1.571   3.827  22.291  0.00  0.00    -0.273 OA
ATOM     22  N   LEU A   8       0.923   5.172  20.600  0.00  0.00    -0.298 N 
ATOM     23  H   LEU A   8       0.752   5.259  19.578  0.00  0.00    +0.150 HD
BRANCH  22  24
ATOM     24  CA  LEU A   8       0.569   6.281  21.488  0.00  0.00    +0.137 C 
BRANCH  24  25
ATOM     25  C   LEU A   8      -0.474   5.900  22.524  0.00  0.00    +0.227 C 
ATOM     26  O   LEU A   8      -1.471   5.206  22.236  0.00  0.00    -0.286 OA
ENDBRANCH  24  25
BRANCH  24  27
ATOM     27  CB  LEU A   8       0.065   7.481  20.676  0.00  0.00    +0.028 C 
BRANCH  27  28
ATOM     28  CG  LEU A   8       1.090   8.014  19.670  0.00  0.00    +0.002 C 
ATOM     29  CD2 LEU A   8       2.347   8.527  20.344  0.00  0.00    +0.000 C 
ATOM     30  CD1 LEU A   8       0.427   9.097  18.790  0.00  0.00    +0.000 C 
ENDBRANCH  27  28
ENDBRANCH  24  27
ENDBRANCH  22  24
ENDBRANCH  19  20
BRANCH  19  31
ATOM     31  CB  LEU A   7       2.947   2.083  20.589  0.00  0.00    +0.029 C 
BRANCH  31  32
ATOM     32  CG  LEU A   7       3.275   0.894  19.660  0.00  0.00    +0.002 C 
ATOM     33  CD2 LEU A   7       4.570   0.246  20.151  0.00  0.00    +0.000 C 
ATOM     34  CD1 LEU A   7       2.153  -0.147  19.583  0.00  0.00    +0.000 C 
ENDBRANCH  31  32
ENDBRANCH  19  31
ENDBRANCH  17  19
ENDBRANCH  10  15
ENDBRANCH   4   8
BRANCH   1  35
ATOM     35  CA  THR A   4       0.652  -0.408  16.071  0.00  0.00    +0.176 C 
BRANCH  35  38
ATOM     36  C   THR A   3      -0.730  -1.467  17.757  0.00  0.00    +0.243 C 
ATOM     37  O   THR A   3      -0.135  -2.526  17.619  0.00  0.00    -0.273 OA
ATOM     38  N   THR A   4      -0.471  -0.412  16.989  0.00  0.00    -0.295 N 
ATOM     39  H   THR A   4      -1.085   0.425  17.048  0.00  0.00    +0.150 HD
BRANCH  36  40
ATOM     40  CA  THR A   3      -1.759  -1.321  18.844  0.00  0.00    +0.176 C 
BRANCH  40  43
ATOM     41  C   LEU A   2      -1.972   0.936  19.694  0.00  0.00    +0.241 C 
ATOM     42  O   LEU A   2      -1.023   0.754  20.471  0.00  0.00    -0.273 OA
ATOM     43  N   THR A   3      -2.385  -0.007  18.868  0.00  0.00    -0.295 N 
ATOM     44  H   THR A   3      -3.174   0.193  18.221  0.00  0.00    +0.150 HD
BRANCH  41  45
ATOM     45  CA  LEU A   2      -2.675   2.297  19.625  0.00  0.00    +0.149 C 
BRANCH  45  48
ATOM     46  C   SER A   1      -3.255   2.196  21.963  0.00  0.00    +0.241 C 
ATOM     47  O   SER A   1      -4.035   1.236  21.775  0.00  0.00    -0.274 OA
ATOM     48  N   LEU A   2      -2.687   2.856  20.968  0.00  0.00    -0.297 N 
ATOM     49  H   LEU A   2      -2.246   3.781  21.147  0.00  0.00    +0.150 HD
BRANCH  46  50
ATOM     50  CA  SER A   1      -2.851   2.584  23.382  0.00  0.00    +0.174 C 
BRANCH  50  51
ATOM     51  N   SER A   1      -3.682   1.984  24.420  0.00  0.00    -0.236 NA
ATOM     52  H   SER A   1      -3.989   0.997  24.304  0.00  0.00    +0.142 HD
ENDBRANCH  50  51
BRANCH  50  53
ATOM     53  CB  SER A   1      -1.368   2.206  23.557  0.00  0.00    +0.163 C 
BRANCH  53  54
ATOM     54  OG  SER A   1      -1.142   0.817  23.217  0.00  0.00    -0.380 OA
ATOM     55  H   SER A   1      -1.400   0.663  22.274  0.00  0.00    +0.211 HD
ENDBRANCH  53  54
ENDBRANCH  50  53
ENDBRANCH  46  50
ENDBRANCH  45  48
BRANCH  45  56
ATOM     56  CB  LEU A   2      -1.910   3.199  18.661  0.00  0.00    +0.029 C 
BRANCH  56  57
ATOM     57  CG  LEU A   2      -2.301   4.667  18.572  0.00  0.00    +0.002 C 
ATOM     58  CD2 LEU A   2      -3.744   4.874  18.264  0.00  0.00    +0.000 C 
ATOM     59  CD1 LEU A   2      -1.423   5.338  17.549  0.00  0.00    +0.000 C 
ENDBRANCH  56  57
ENDBRANCH  45  56
ENDBRANCH  41  45
ENDBRANCH  40  43
BRANCH  40  60
ATOM     60  CB  THR A   3      -2.764  -2.440  18.702  0.00  0.00    +0.137 C 
ATOM     61  CG2 THR A   3      -3.833  -2.391  19.794  0.00  0.00    +0.034 C 
BRANCH  60  62
ATOM     62  OG1 THR A   3      -3.344  -2.359  17.397  0.00  0.00    -0.382 OA
ATOM     63  HG1 THR A   3      -4.006  -3.086  17.286  0.00  0.00    +0.210 HD
ENDBRANCH  60  62
ENDBRANCH  40  60
ENDBRANCH  36  40
ENDBRANCH  35  38
BRANCH  35  64
ATOM     64  CB  THR A   4       0.234  -0.383  14.567  0.00  0.00    +0.137 C 
ATOM     65  CG2 THR A   4      -0.986  -1.195  14.302  0.00  0.00    +0.034 C 
BRANCH  64  66
ATOM     66  OG1 THR A   4      -0.069   0.945  14.173  0.00  0.00    -0.382 OA
ATOM     67  HG1 THR A   4      -0.333   0.953  13.219  0.00  0.00    +0.210 HD
ENDBRANCH  64  66
ENDBRANCH  35  64
ENDBRANCH   1  35
TORSDOF 26
REMARK  Name = ../refined-set-2016/3oim/3oim_pocket.pdb
REMARK  163 active torsions:
REMARK  status: ('A' for Active; 'I' for Inactive)
REMARK    1  A    between atoms: _1  and  _3
REMARK    2  A    between atoms: _3  and  _4
REMARK    3  A    between atoms: _3  and  _6
REMARK    4  A    between atoms: _6  and  _7
REMARK    5  A    between atoms: _17  and  _19
REMARK    6  A    between atoms: _19  and  _20
REMARK    7  A    between atoms: _19  and  _22
REMARK    8  A    between atoms: _22  and  _23
REMARK    9  A    between atoms: _28  and  _29
REMARK   10  A    between atoms: _31  and  _33
REMARK   11  A    between atoms: _33  and  _34
REMARK   12  A    between atoms: _33  and  _36
REMARK   13  A    between atoms: _36  and  _37
REMARK   14  A    between atoms: _43  and  _45
REMARK   15  A    between atoms: _45  and  _46
REMARK   16  A    between atoms: _45  and  _48
REMARK   17  A    between atoms: _48  and  _49
REMARK   18  A    between atoms: _52  and  _53
REMARK   19  A    between atoms: _58  and  _60
REMARK   20  A    between atoms: _60  and  _61
REMARK   21  A    between atoms: _60  and  _63
REMARK   22  A    between atoms: _63  and  _64
REMARK   23  A    between atoms: _69  and  _71
REMARK   24  A    between atoms: _71  and  _72
REMARK   25  A    between atoms: _71  and  _74
REMARK   26  A    between atoms: _74  and  _75
REMARK   27  A    between atoms: _80  and  _82
REMARK   28  A    between atoms: _82  and  _83
REMARK   29  A    between atoms: _86  and  _88
REMARK   30  A    between atoms: _88  and  _89
REMARK   31  A    between atoms: _88  and  _91
REMARK   32  A    between atoms: _91  and  _92
REMARK   33  A    between atoms: _97  and  _99
REMARK   34  A    between atoms: _99  and  _100
REMARK   35  A    between atoms: _99  and  _102
REMARK   36  A    between atoms: _102  and  _103
REMARK   37  A    between atoms: _106  and  _108
REMARK   38  A    between atoms: _108  and  _109
REMARK   39  A    between atoms: _108  and  _111
REMARK   40  A    between atoms: _111  and  _112
REMARK   41  A    between atoms: _112  and  _113
REMARK   42  A    between atoms: _118  and  _120
REMARK   43  A    between atoms: _120  and  _121
REMARK   44  A    between atoms: _120  and  _123
REMARK   45  A    between atoms: _123  and  _124
REMARK   46  A    between atoms: _130  and  _132
REMARK   47  A    between atoms: _143  and  _146
REMARK   48  A    between atoms: _146  and  _147
REMARK   49  A    between atoms: _155  and  _156
REMARK   50  A    between atoms: _164  and  _166
REMARK   51  A    between atoms: _166  and  _167
REMARK   52  A    between atoms: _166  and  _169
REMARK   53  A    between atoms: _169  and  _170
REMARK   54  A    between atoms: _170  and  _171
REMARK   55  A    between atoms: _174  and  _176
REMARK   56  A    between atoms: _176  and  _177
REMARK   57  A    between atoms: _176  and  _179
REMARK   58  A    between atoms: _179  and  _180
REMARK   59  A    between atoms: _185  and  _187
REMARK   60  A    between atoms: _187  and  _188
REMARK   61  A    between atoms: _187  and  _190
REMARK   62  A    between atoms: _190  and  _191
REMARK   63  A    between atoms: _191  and  _192
REMARK   64  A    between atoms: _195  and  _197
REMARK   65  A    between atoms: _197  and  _198
REMARK   66  A    between atoms: _197  and  _200
REMARK   67  A    between atoms: _200  and  _201
REMARK   68  A    between atoms: _204  and  _206
REMARK   69  A    between atoms: _206  and  _207
REMARK   70  A    between atoms: _206  and  _209
REMARK   71  A    between atoms: _209  and  _210
REMARK   72  A    between atoms: _211  and  ZN_451
REMARK   73  A    between atoms: _215  and  _217
REMARK   74  A    between atoms: _217  and  _218
REMARK   75  A    between atoms: _217  and  _220
REMARK   76  A    between atoms: _220  and  _221
REMARK   77  A    between atoms: _224  and  _226
REMARK   78  A    between atoms: _226  and  _227
REMARK   79  A    between atoms: _226  and  _229
REMARK   80  A    between atoms: _232  and  _234
REMARK   81  A    between atoms: _234  and  _235
REMARK   82  A    between atoms: _234  and  _237
REMARK   83  A    between atoms: _237  and  _238
REMARK   84  A    between atoms: _243  and  _245
REMARK   85  A    between atoms: _245  and  _246
REMARK   86  A    between atoms: _245  and  _248
REMARK   87  A    between atoms: _248  and  _249
REMARK   88  A    between atoms: _255  and  _257
REMARK   89  A    between atoms: _257  and  _258
REMARK   90  A    between atoms: _260  and  _262
REMARK   91  A    between atoms: _262  and  _263
REMARK   92  A    between atoms: _262  and  _265
REMARK   93  A    between atoms: _265  and  _266
REMARK   94  A    between atoms: _266  and  _267
REMARK   95  A    between atoms: _267  and  _268
REMARK   96  A    between atoms: _268  and  _269
REMARK   97  A    between atoms: _273  and  _275
REMARK   98  A    between atoms: _275  and  _276
REMARK   99  A    between atoms: _275  and  _278
REMARK  100  A    between atoms: _281  and  _283
REMARK  101  A    between atoms: _283  and  _284
REMARK  102  A    between atoms: _283  and  _286
REMARK  103  A    between atoms: _286  and  _287
REMARK  104  A    between atoms: _287  and  _288
REMARK  105  A    between atoms: _293  and  _295
REMARK  106  A    between atoms: _295  and  _296
REMARK  107  A    between atoms: _295  and  _298
REMARK  108  A    between atoms: _298  and  _299
REMARK  109  A    between atoms: _302  and  _304
REMARK  110  A    between atoms: _304  and  _305
REMARK  111  A    between atoms: _308  and  _310
REMARK  112  A    between atoms: _310  and  _311
REMARK  113  A    between atoms: _310  and  _313
REMARK  114  A    between atoms: _316  and  _318
REMARK  115  A    between atoms: _318  and  _319
REMARK  116  A    between atoms: _318  and  _321
REMARK  117  A    between atoms: _321  and  _322
REMARK  118  A    between atoms: _325  and  _327
REMARK  119  A    between atoms: _327  and  _328
REMARK  120  A    between atoms: _327  and  _330
REMARK  121  A    between atoms: _330  and  _331
REMARK  122  A    between atoms: _333  and  _335
REMARK  123  A    between atoms: _335  and  _336
REMARK  124  A    between atoms: _335  and  _338
REMARK  125  A    between atoms: _338  and  _339
REMARK  126  A    between atoms: _342  and  _344
REMARK  127  A    between atoms: _344  and  _345
REMARK  128  A    between atoms: _344  and  _347
REMARK  129  A    between atoms: _347  and  _348
REMARK  130  A    between atoms: _351  and  _353
REMARK  131  A    between atoms: _353  and  _354
REMARK  132  A    between atoms: _353  and  _356
REMARK  133  A    between atoms: _356  and  _357
REMARK  134  A    between atoms: _361  and  _362
REMARK  135  A    between atoms: _368  and  _369
REMARK  136  A    between atoms: _374  and  _376
REMARK  137  A    between atoms: _376  and  _377
REMARK  138  A    between atoms: _376  and  _379
REMARK  139  A    between atoms: _379  and  _380
REMARK  140  A    between atoms: _383  and  _385
REMARK  141  A    between atoms: _385  and  _386
REMARK  142  A    between atoms: _385  and  _388
REMARK  143  A    between atoms: _388  and  _389
REMARK  144  A    between atoms: _392  and  _394
REMARK  145  A    between atoms: _394  and  _395
REMARK  146  A    between atoms: _394  and  _397
REMARK  147  A    between atoms: _399  and  _401
REMARK  148  A    between atoms: _401  and  _402
REMARK  149  A    between atoms: _401  and  _404
REMARK  150  A    between atoms: _407  and  _409
REMARK  151  A    between atoms: _409  and  _410
REMARK  152  A    between atoms: _409  and  _412
REMARK  153  A    between atoms: _412  and  _413
REMARK  154  A    between atoms: _423  and  _425
REMARK  155  A    between atoms: _425  and  _426
REMARK  156  A    between atoms: _425  and  _428
REMARK  157  A    between atoms: _428  and  _429
REMARK  158  A    between atoms: _434  and  _436
REMARK  159  A    between atoms: _436  and  _437
REMARK  160  A    between atoms: _436  and  _439
REMARK  161  A    between atoms: _439  and  _440
REMARK  162  A    between atoms: _440  and  _441
REMARK  163  A    between atoms: _441  and  _442
REMARK                            x       y       z     vdW  Elec       q    Type
REMARK                         _______ _______ _______ _____ _____    ______ ____
ROOT
ATOM      1  C   CYS A   1      -5.655   7.283  23.658  0.00  0.00    +0.239 C 
ATOM      2  N   VAL A   2      -5.794   5.984  23.973  0.00  0.00    -0.298 N 
ATOM      3  H   VAL A   2      -5.016   5.485  24.450  0.00  0.00    +0.150 HD
ATOM      4  O   CYS A   1      -6.606   7.971  23.280  0.00  0.00    -0.274 OA
ENDROOT
BRANCH   1   5
ATOM      5  CA  CYS A   1      -4.293   7.908  23.786  0.00  0.00    +0.156 C 
BRANCH   5   6
ATOM      6  N   CYS A   1      -3.232   6.920  23.986  0.00  0.00    -0.237 NA
ATOM      7  H   CYS A   1      -3.160   6.132  23.311  0.00  0.00    +0.142 HD
ENDBRANCH   5   6
BRANCH   5   8
ATOM      8  CB  CYS A   1      -4.019   8.723  22.529  0.00  0.00    +0.095 C 
ATOM      9  SG  CYS A   1      -3.951   7.745  21.012  0.00  0.00    -0.080 S 
ENDBRANCH   5   8
ENDBRANCH   1   5
BRANCH   2  10
ATOM     10  CA  VAL A   2      -7.031   5.259  23.652  0.00  0.00    +0.137 C 
BRANCH  10  11
ATOM     11  CB  VAL A   2      -6.745   4.013  22.804  0.00  0.00    +0.026 C 
ATOM     12  CG2 VAL A   2      -8.069   3.277  22.462  0.00  0.00    +0.002 C 
ATOM     13  CG1 VAL A   2      -6.000   4.396  21.523  0.00  0.00    +0.002 C 
ENDBRANCH  10  11
BRANCH  10  14
ATOM     14  C   VAL A   2      -7.772   4.794  24.885  0.00  0.00    +0.227 C 
ATOM     15  O   VAL A   2      -7.215   4.111  25.745  0.00  0.00    -0.286 OA
ENDBRANCH  10  14
ENDBRANCH   2  10
TORSDOF 6
REMARK  Name = ../refined-set-2016/3oim/3oim_pocket.pdb
REMARK  163 active torsions:
REMARK  status: ('A' for Active; 'I' for Inactive)
REMARK    1  A    between atoms: _1  and  _3
REMARK    2  A    between atoms: _3  and  _4
REMARK    3  A    between atoms: _3  and  _6
REMARK    4  A    between atoms: _6  and  _7
REMARK    5  A    between atoms: _17  and  _19
REMARK    6  A    between atoms: _19  and  _20
REMARK    7  A    between atoms: _19  and  _22
REMARK    8  A    between atoms: _22  and  _23
REMARK    9  A    between atoms: _28  and  _29
REMARK   10  A    between atoms: _31  and  _33
REMARK   11  A    between atoms: _33  and  _34
REMARK   12  A    between atoms: _33  and  _36
REMARK   13  A    between atoms: _36  and  _37
REMARK   14  A    between atoms: _43  and  _45
REMARK   15  A    between atoms: _45  and  _46
REMARK   16  A    between atoms: _45  and  _48
REMARK   17  A    between atoms: _48  and  _49
REMARK   18  A    between atoms: _52  and  _53
REMARK   19  A    between atoms: _58  and  _60
REMARK   20  A    between atoms: _60  and  _61
REMARK   21  A    between atoms: _60  and  _63
REMARK   22  A    between atoms: _63  and  _64
REMARK   23  A    between atoms: _69  and  _71
REMARK   24  A    between atoms: _71  and  _72
REMARK   25  A    between atoms: _71  and  _74
REMARK   26  A    between atoms: _74  and  _75
REMARK   27  A    between atoms: _80  and  _82
REMARK   28  A    between atoms: _82  and  _83
REMARK   29  A    between atoms: _86  and  _88
REMARK   30  A    between atoms: _88  and  _89
REMARK   31  A    between atoms: _88  and  _91
REMARK   32  A    between atoms: _91  and  _92
REMARK   33  A    between atoms: _97  and  _99
REMARK   34  A    between atoms: _99  and  _100
REMARK   35  A    between atoms: _99  and  _102
REMARK   36  A    between atoms: _102  and  _103
REMARK   37  A    between atoms: _106  and  _108
REMARK   38  A    between atoms: _108  and  _109
REMARK   39  A    between atoms: _108  and  _111
REMARK   40  A    between atoms: _111  and  _112
REMARK   41  A    between atoms: _112  and  _113
REMARK   42  A    between atoms: _118  and  _120
REMARK   43  A    between atoms: _120  and  _121
REMARK   44  A    between atoms: _120  and  _123
REMARK   45  A    between atoms: _123  and  _124
REMARK   46  A    between atoms: _130  and  _132
REMARK   47  A    between atoms: _143  and  _146
REMARK   48  A    between atoms: _146  and  _147
REMARK   49  A    between atoms: _155  and  _156
REMARK   50  A    between atoms: _164  and  _166
REMARK   51  A    between atoms: _166  and  _167
REMARK   52  A    between atoms: _166  and  _169
REMARK   53  A    between atoms: _169  and  _170
REMARK   54  A    between atoms: _170  and  _171
REMARK   55  A    between atoms: _174  and  _176
REMARK   56  A    between atoms: _176  and  _177
REMARK   57  A    between atoms: _176  and  _179
REMARK   58  A    between atoms: _179  and  _180
REMARK   59  A    between atoms: _185  and  _187
REMARK   60  A    between atoms: _187  and  _188
REMARK   61  A    between atoms: _187  and  _190
REMARK   62  A    between atoms: _190  and  _191
REMARK   63  A    between atoms: _191  and  _192
REMARK   64  A    between atoms: _195  and  _197
REMARK   65  A    between atoms: _197  and  _198
REMARK   66  A    between atoms: _197  and  _200
REMARK   67  A    between atoms: _200  and  _201
REMARK   68  A    between atoms: _204  and  _206
REMARK   69  A    between atoms: _206  and  _207
REMARK   70  A    between atoms: _206  and  _209
REMARK   71  A    between atoms: _209  and  _210
REMARK   72  A    between atoms: _211  and  ZN_451
REMARK   73  A    between atoms: _215  and  _217
REMARK   74  A    between atoms: _217  and  _218
REMARK   75  A    between atoms: _217  and  _220
REMARK   76  A    between atoms: _220  and  _221
REMARK   77  A    between atoms: _224  and  _226
REMARK   78  A    between atoms: _226  and  _227
REMARK   79  A    between atoms: _226  and  _229
REMARK   80  A    between atoms: _232  and  _234
REMARK   81  A    between atoms: _234  and  _235
REMARK   82  A    between atoms: _234  and  _237
REMARK   83  A    between atoms: _237  and  _238
REMARK   84  A    between atoms: _243  and  _245
REMARK   85  A    between atoms: _245  and  _246
REMARK   86  A    between atoms: _245  and  _248
REMARK   87  A    between atoms: _248  and  _249
REMARK   88  A    between atoms: _255  and  _257
REMARK   89  A    between atoms: _257  and  _258
REMARK   90  A    between atoms: _260  and  _262
REMARK   91  A    between atoms: _262  and  _263
REMARK   92  A    between atoms: _262  and  _265
REMARK   93  A    between atoms: _265  and  _266
REMARK   94  A    between atoms: _266  and  _267
REMARK   95  A    between atoms: _267  and  _268
REMARK   96  A    between atoms: _268  and  _269
REMARK   97  A    between atoms: _273  and  _275
REMARK   98  A    between atoms: _275  and  _276
REMARK   99  A    between atoms: _275  and  _278
REMARK  100  A    between atoms: _281  and  _283
REMARK  101  A    between atoms: _283  and  _284
REMARK  102  A    between atoms: _283  and  _286
REMARK  103  A    between atoms: _286  and  _287
REMARK  104  A    between atoms: _287  and  _288
REMARK  105  A    between atoms: _293  and  _295
REMARK  106  A    between atoms: _295  and  _296
REMARK  107  A    between atoms: _295  and  _298
REMARK  108  A    between atoms: _298  and  _299
REMARK  109  A    between atoms: _302  and  _304
REMARK  110  A    between atoms: _304  and  _305
REMARK  111  A    between atoms: _308  and  _310
REMARK  112  A    between atoms: _310  and  _311
REMARK  113  A    between atoms: _310  and  _313
REMARK  114  A    between atoms: _316  and  _318
REMARK  115  A    between atoms: _318  and  _319
REMARK  116  A    between atoms: _318  and  _321
REMARK  117  A    between atoms: _321  and  _322
REMARK  118  A    between atoms: _325  and  _327
REMARK  119  A    between atoms: _327  and  _328
REMARK  120  A    between atoms: _327  and  _330
REMARK  121  A    between atoms: _330  and  _331
REMARK  122  A    between atoms: _333  and  _335
REMARK  123  A    between atoms: _335  and  _336
REMARK  124  A    between atoms: _335  and  _338
REMARK  125  A    between atoms: _338  and  _339
REMARK  126  A    between atoms: _342  and  _344
REMARK  127  A    between atoms: _344  and  _345
REMARK  128  A    between atoms: _344  and  _347
REMARK  129  A    between atoms: _347  and  _348
REMARK  130  A    between atoms: _351  and  _353
REMARK  131  A    between atoms: _353  and  _354
REMARK  132  A    between atoms: _353  and  _356
REMARK  133  A    between atoms: _356  and  _357
REMARK  134  A    between atoms: _361  and  _362
REMARK  135  A    between atoms: _368  and  _369
REMARK  136  A    between atoms: _374  and  _376
REMARK  137  A    between atoms: _376  and  _377
REMARK  138  A    between atoms: _376  and  _379
REMARK  139  A    between atoms: _379  and  _380
REMARK  140  A    between atoms: _383  and  _385
REMARK  141  A    between atoms: _385  and  _386
REMARK  142  A    between atoms: _385  and  _388
REMARK  143  A    between atoms: _388  and  _389
REMARK  144  A    between atoms: _392  and  _394
REMARK  145  A    between atoms: _394  and  _395
REMARK  146  A    between atoms: _394  and  _397
REMARK  147  A    between atoms: _399  and  _401
REMARK  148  A    between atoms: _401  and  _402
REMARK  149  A    between atoms: _401  and  _404
REMARK  150  A    between atoms: _407  and  _409
REMARK  151  A    between atoms: _409  and  _410
REMARK  152  A    between atoms: _409  and  _412
REMARK  153  A    between atoms: _412  and  _413
REMARK  154  A    between atoms: _423  and  _425
REMARK  155  A    between atoms: _425  and  _426
REMARK  156  A    between atoms: _425  and  _428
REMARK  157  A    between atoms: _428  and  _429
REMARK  158  A    between atoms: _434  and  _436
REMARK  159  A    between atoms: _436  and  _437
REMARK  160  A    between atoms: _436  and  _439
REMARK  161  A    between atoms: _439  and  _440
REMARK  162  A    between atoms: _440  and  _441
REMARK  163  A    between atoms: _441  and  _442
REMARK                            x       y       z     vdW  Elec       q    Type
REMARK                         _______ _______ _______ _____ _____    ______ ____
ROOT
ATOM      1  CG  TRP A   1      -8.551  -0.197  23.950  0.00  0.00    -0.002 A 
ATOM      2  CD1 TRP A   1      -7.319   0.406  24.136  0.00  0.00    +0.068 A 
ATOM      3  NE1 TRP A   1      -6.615   0.385  22.962  0.00  0.00    -0.352 N 
ATOM      4  HE1 TRP A   1      -5.660   0.776  22.834  0.00  0.00    +0.166 HD
ATOM      5  CE2 TRP A   1      -7.354  -0.229  21.975  0.00  0.00    +0.056 A 
ATOM      6  CZ2 TRP A   1      -7.085  -0.428  20.620  0.00  0.00    +0.017 A 
ATOM      7  CH2 TRP A   1      -8.038  -1.085  19.869  0.00  0.00    +0.001 A 
ATOM      8  CZ3 TRP A   1      -9.266  -1.457  20.418  0.00  0.00    +0.000 A 
ATOM      9  CE3 TRP A   1      -9.549  -1.234  21.763  0.00  0.00    +0.001 A 
ATOM     10  CD2 TRP A   1      -8.594  -0.582  22.563  0.00  0.00    +0.013 A 
ENDROOT
BRANCH   1  11
ATOM     11  CB  TRP A   1      -9.654  -0.328  24.923  0.00  0.00    +0.053 C 
BRANCH  11  12
ATOM     12  CA  TRP A   1     -10.683   0.811  24.743  0.00  0.00    +0.137 C 
BRANCH  12  13
ATOM     13  N   TRP A   1     -10.215   2.028  25.412  0.00  0.00    -0.239 NA
ATOM     14  H   TRP A   1      -9.585   1.932  26.234  0.00  0.00    +0.142 HD
ENDBRANCH  12  13
BRANCH  12  15
ATOM     15  C   TRP A   1     -12.020   0.383  25.292  0.00  0.00    +0.224 C 
ATOM     16  O   TRP A   1     -12.221   0.338  26.512  0.00  0.00    -0.287 OA
ENDBRANCH  12  15
ENDBRANCH  11  12
ENDBRANCH   1  11
TORSDOF 4
REMARK  Name = ../refined-set-2016/3oim/3oim_pocket.pdb
REMARK  163 active torsions:
REMARK  status: ('A' for Active; 'I' for Inactive)
REMARK    1  A    between atoms: _1  and  _3
REMARK    2  A    between atoms: _3  and  _4
REMARK    3  A    between atoms: _3  and  _6
REMARK    4  A    between atoms: _6  and  _7
REMARK    5  A    between atoms: _17  and  _19
REMARK    6  A    between atoms: _19  and  _20
REMARK    7  A    between atoms: _19  and  _22
REMARK    8  A    between atoms: _22  and  _23
REMARK    9  A    between atoms: _28  and  _29
REMARK   10  A    between atoms: _31  and  _33
REMARK   11  A    between atoms: _33  and  _34
REMARK   12  A    between atoms: _33  and  _36
REMARK   13  A    between atoms: _36  and  _37
REMARK   14  A    between atoms: _43  and  _45
REMARK   15  A    between atoms: _45  and  _46
REMARK   16  A    between atoms: _45  and  _48
REMARK   17  A    between atoms: _48  and  _49
REMARK   18  A    between atoms: _52  and  _53
REMARK   19  A    between atoms: _58  and  _60
REMARK   20  A    between atoms: _60  and  _61
REMARK   21  A    between atoms: _60  and  _63
REMARK   22  A    between atoms: _63  and  _64
REMARK   23  A    between atoms: _69  and  _71
REMARK   24  A    between atoms: _71  and  _72
REMARK   25  A    between atoms: _71  and  _74
REMARK   26  A    between atoms: _74  and  _75
REMARK   27  A    between atoms: _80  and  _82
REMARK   28  A    between atoms: _82  and  _83
REMARK   29  A    between atoms: _86  and  _88
REMARK   30  A    between atoms: _88  and  _89
REMARK   31  A    between atoms: _88  and  _91
REMARK   32  A    between atoms: _91  and  _92
REMARK   33  A    between atoms: _97  and  _99
REMARK   34  A    between atoms: _99  and  _100
REMARK   35  A    between atoms: _99  and  _102
REMARK   36  A    between atoms: _102  and  _103
REMARK   37  A    between atoms: _106  and  _108
REMARK   38  A    between atoms: _108  and  _109
REMARK   39  A    between atoms: _108  and  _111
REMARK   40  A    between atoms: _111  and  _112
REMARK   41  A    between atoms: _112  and  _113
REMARK   42  A    between atoms: _118  and  _120
REMARK   43  A    between atoms: _120  and  _121
REMARK   44  A    between atoms: _120  and  _123
REMARK   45  A    between atoms: _123  and  _124
REMARK   46  A    between atoms: _130  and  _132
REMARK   47  A    between atoms: _143  and  _146
REMARK   48  A    between atoms: _146  and  _147
REMARK   49  A    between atoms: _155  and  _156
REMARK   50  A    between atoms: _164  and  _166
REMARK   51  A    between atoms: _166  and  _167
REMARK   52  A    between atoms: _166  and  _169
REMARK   53  A    between atoms: _169  and  _170
REMARK   54  A    between atoms: _170  and  _171
REMARK   55  A    between atoms: _174  and  _176
REMARK   56  A    between atoms: _176  and  _177
REMARK   57  A    between atoms: _176  and  _179
REMARK   58  A    between atoms: _179  and  _180
REMARK   59  A    between atoms: _185  and  _187
REMARK   60  A    between atoms: _187  and  _188
REMARK   61  A    between atoms: _187  and  _190
REMARK   62  A    between atoms: _190  and  _191
REMARK   63  A    between atoms: _191  and  _192
REMARK   64  A    between atoms: _195  and  _197
REMARK   65  A    between atoms: _197  and  _198
REMARK   66  A    between atoms: _197  and  _200
REMARK   67  A    between atoms: _200  and  _201
REMARK   68  A    between atoms: _204  and  _206
REMARK   69  A    between atoms: _206  and  _207
REMARK   70  A    between atoms: _206  and  _209
REMARK   71  A    between atoms: _209  and  _210
REMARK   72  A    between atoms: _211  and  ZN_451
REMARK   73  A    between atoms: _215  and  _217
REMARK   74  A    between atoms: _217  and  _218
REMARK   75  A    between atoms: _217  and  _220
REMARK   76  A    between atoms: _220  and  _221
REMARK   77  A    between atoms: _224  and  _226
REMARK   78  A    between atoms: _226  and  _227
REMARK   79  A    between atoms: _226  and  _229
REMARK   80  A    between atoms: _232  and  _234
REMARK   81  A    between atoms: _234  and  _235
REMARK   82  A    between atoms: _234  and  _237
REMARK   83  A    between atoms: _237  and  _238
REMARK   84  A    between atoms: _243  and  _245
REMARK   85  A    between atoms: _245  and  _246
REMARK   86  A    between atoms: _245  and  _248
REMARK   87  A    between atoms: _248  and  _249
REMARK   88  A    between atoms: _255  and  _257
REMARK   89  A    between atoms: _257  and  _258
REMARK   90  A    between atoms: _260  and  _262
REMARK   91  A    between atoms: _262  and  _263
REMARK   92  A    between atoms: _262  and  _265
REMARK   93  A    between atoms: _265  and  _266
REMARK   94  A    between atoms: _266  and  _267
REMARK   95  A    between atoms: _267  and  _268
REMARK   96  A    between atoms: _268  and  _269
REMARK   97  A    between atoms: _273  and  _275
REMARK   98  A    between atoms: _275  and  _276
REMARK   99  A    between atoms: _275  and  _278
REMARK  100  A    between atoms: _281  and  _283
REMARK  101  A    between atoms: _283  and  _284
REMARK  102  A    between atoms: _283  and  _286
REMARK  103  A    between atoms: _286  and  _287
REMARK  104  A    between atoms: _287  and  _288
REMARK  105  A    between atoms: _293  and  _295
REMARK  106  A    between atoms: _295  and  _296
REMARK  107  A    between atoms: _295  and  _298
REMARK  108  A    between atoms: _298  and  _299
REMARK  109  A    between atoms: _302  and  _304
REMARK  110  A    between atoms: _304  and  _305
REMARK  111  A    between atoms: _308  and  _310
REMARK  112  A    between atoms: _310  and  _311
REMARK  113  A    between atoms: _310  and  _313
REMARK  114  A    between atoms: _316  and  _318
REMARK  115  A    between atoms: _318  and  _319
REMARK  116  A    between atoms: _318  and  _321
REMARK  117  A    between atoms: _321  and  _322
REMARK  118  A    between atoms: _325  and  _327
REMARK  119  A    between atoms: _327  and  _328
REMARK  120  A    between atoms: _327  and  _330
REMARK  121  A    between atoms: _330  and  _331
REMARK  122  A    between atoms: _333  and  _335
REMARK  123  A    between atoms: _335  and  _336
REMARK  124  A    between atoms: _335  and  _338
REMARK  125  A    between atoms: _338  and  _339
REMARK  126  A    between atoms: _342  and  _344
REMARK  127  A    between atoms: _344  and  _345
REMARK  128  A    between atoms: _344  and  _347
REMARK  129  A    between atoms: _347  and  _348
REMARK  130  A    between atoms: _351  and  _353
REMARK  131  A    between atoms: _353  and  _354
REMARK  132  A    between atoms: _353  and  _356
REMARK  133  A    between atoms: _356  and  _357
REMARK  134  A    between atoms: _361  and  _362
REMARK  135  A    between atoms: _368  and  _369
REMARK  136  A    between atoms: _374  and  _376
REMARK  137  A    between atoms: _376  and  _377
REMARK  138  A    between atoms: _376  and  _379
REMARK  139  A    between atoms: _379  and  _380
REMARK  140  A    between atoms: _383  and  _385
REMARK  141  A    between atoms: _385  and  _386
REMARK  142  A    between atoms: _385  and  _388
REMARK  143  A    between atoms: _388  and  _389
REMARK  144  A    between atoms: _392  and  _394
REMARK  145  A    between atoms: _394  and  _395
REMARK  146  A    between atoms: _394  and  _397
REMARK  147  A    between atoms: _399  and  _401
REMARK  148  A    between atoms: _401  and  _402
REMARK  149  A    between atoms: _401  and  _404
REMARK  150  A    between atoms: _407  and  _409
REMARK  151  A    between atoms: _409  and  _410
REMARK  152  A    between atoms: _409  and  _412
REMARK  153  A    between atoms: _412  and  _413
REMARK  154  A    between atoms: _423  and  _425
REMARK  155  A    between atoms: _425  and  _426
REMARK  156  A    between atoms: _425  and  _428
REMARK  157  A    between atoms: _428  and  _429
REMARK  158  A    between atoms: _434  and  _436
REMARK  159  A    between atoms: _436  and  _437
REMARK  160  A    between atoms: _436  and  _439
REMARK  161  A    between atoms: _439  and  _440
REMARK  162  A    between atoms: _440  and  _441
REMARK  163  A    between atoms: _441  and  _442
REMARK                            x       y       z     vdW  Elec       q    Type
REMARK                         _______ _______ _______ _____ _____    ______ ____
ROOT
ATOM      1  CB  ASN A   1      -1.879  -7.455  10.314  0.00  0.00    +0.110 C 
ENDROOT
BRANCH   1   2
ATOM      2  CG  ASN A   1      -3.375  -7.609  10.134  0.00  0.00    +0.221 C 
ATOM      3  OD1 ASN A   1      -4.017  -8.459  10.734  0.00  0.00    -0.275 OA
ATOM      4  ND2 ASN A   1      -3.969  -6.706   9.344  0.00  0.00    -0.329 N 
ATOM      5 HD21 ASN A   1      -5.003  -6.716   9.228  0.00  0.00    +0.145 HD
ATOM      6 HD22 ASN A   1      -3.397  -5.994   8.846  0.00  0.00    +0.145 HD
ENDBRANCH   1   2
BRANCH   1   7
ATOM      7  CA  ASN A   1      -1.321  -8.333  11.449  0.00  0.00    +0.142 C 
BRANCH   7   8
ATOM      8  N   ASN A   1      -1.591  -9.738  11.189  0.00  0.00    -0.239 NA
ATOM      9  H   ASN A   1      -2.503 -10.004  10.766  0.00  0.00    +0.142 HD
ENDBRANCH   7   8
BRANCH   7  10
ATOM     10  C   ASN A   1      -1.852  -7.892  12.807  0.00  0.00    +0.225 C 
ATOM     11  O   ASN A   1      -2.479  -6.847  12.937  0.00  0.00    -0.287 OA
ENDBRANCH   7  10
ENDBRANCH   1   7
TORSDOF 4
REMARK  Name = ../refined-set-2016/3oim/3oim_pocket.pdb
REMARK  163 active torsions:
REMARK  status: ('A' for Active; 'I' for Inactive)
REMARK    1  A    between atoms: _1  and  _3
REMARK    2  A    between atoms: _3  and  _4
REMARK    3  A    between atoms: _3  and  _6
REMARK    4  A    between atoms: _6  and  _7
REMARK    5  A    between atoms: _17  and  _19
REMARK    6  A    between atoms: _19  and  _20
REMARK    7  A    between atoms: _19  and  _22
REMARK    8  A    between atoms: _22  and  _23
REMARK    9  A    between atoms: _28  and  _29
REMARK   10  A    between atoms: _31  and  _33
REMARK   11  A    between atoms: _33  and  _34
REMARK   12  A    between atoms: _33  and  _36
REMARK   13  A    between atoms: _36  and  _37
REMARK   14  A    between atoms: _43  and  _45
REMARK   15  A    between atoms: _45  and  _46
REMARK   16  A    between atoms: _45  and  _48
REMARK   17  A    between atoms: _48  and  _49
REMARK   18  A    between atoms: _52  and  _53
REMARK   19  A    between atoms: _58  and  _60
REMARK   20  A    between atoms: _60  and  _61
REMARK   21  A    between atoms: _60  and  _63
REMARK   22  A    between atoms: _63  and  _64
REMARK   23  A    between atoms: _69  and  _71
REMARK   24  A    between atoms: _71  and  _72
REMARK   25  A    between atoms: _71  and  _74
REMARK   26  A    between atoms: _74  and  _75
REMARK   27  A    between atoms: _80  and  _82
REMARK   28  A    between atoms: _82  and  _83
REMARK   29  A    between atoms: _86  and  _88
REMARK   30  A    between atoms: _88  and  _89
REMARK   31  A    between atoms: _88  and  _91
REMARK   32  A    between atoms: _91  and  _92
REMARK   33  A    between atoms: _97  and  _99
REMARK   34  A    between atoms: _99  and  _100
REMARK   35  A    between atoms: _99  and  _102
REMARK   36  A    between atoms: _102  and  _103
REMARK   37  A    between atoms: _106  and  _108
REMARK   38  A    between atoms: _108  and  _109
REMARK   39  A    between atoms: _108  and  _111
REMARK   40  A    between atoms: _111  and  _112
REMARK   41  A    between atoms: _112  and  _113
REMARK   42  A    between atoms: _118  and  _120
REMARK   43  A    between atoms: _120  and  _121
REMARK   44  A    between atoms: _120  and  _123
REMARK   45  A    between atoms: _123  and  _124
REMARK   46  A    between atoms: _130  and  _132
REMARK   47  A    between atoms: _143  and  _146
REMARK   48  A    between atoms: _146  and  _147
REMARK   49  A    between atoms: _155  and  _156
REMARK   50  A    between atoms: _164  and  _166
REMARK   51  A    between atoms: _166  and  _167
REMARK   52  A    between atoms: _166  and  _169
REMARK   53  A    between atoms: _169  and  _170
REMARK   54  A    between atoms: _170  and  _171
REMARK   55  A    between atoms: _174  and  _176
REMARK   56  A    between atoms: _176  and  _177
REMARK   57  A    between atoms: _176  and  _179
REMARK   58  A    between atoms: _179  and  _180
REMARK   59  A    between atoms: _185  and  _187
REMARK   60  A    between atoms: _187  and  _188
REMARK   61  A    between atoms: _187  and  _190
REMARK   62  A    between atoms: _190  and  _191
REMARK   63  A    between atoms: _191  and  _192
REMARK   64  A    between atoms: _195  and  _197
REMARK   65  A    between atoms: _197  and  _198
REMARK   66  A    between atoms: _197  and  _200
REMARK   67  A    between atoms: _200  and  _201
REMARK   68  A    between atoms: _204  and  _206
REMARK   69  A    between atoms: _206  and  _207
REMARK   70  A    between atoms: _206  and  _209
REMARK   71  A    between atoms: _209  and  _210
REMARK   72  A    between atoms: _211  and  ZN_451
REMARK   73  A    between atoms: _215  and  _217
REMARK   74  A    between atoms: _217  and  _218
REMARK   75  A    between atoms: _217  and  _220
REMARK   76  A    between atoms: _220  and  _221
REMARK   77  A    between atoms: _224  and  _226
REMARK   78  A    between atoms: _226  and  _227
REMARK   79  A    between atoms: _226  and  _229
REMARK   80  A    between atoms: _232  and  _234
REMARK   81  A    between atoms: _234  and  _235
REMARK   82  A    between atoms: _234  and  _237
REMARK   83  A    between atoms: _237  and  _238
REMARK   84  A    between atoms: _243  and  _245
REMARK   85  A    between atoms: _245  and  _246
REMARK   86  A    between atoms: _245  and  _248
REMARK   87  A    between atoms: _248  and  _249
REMARK   88  A    between atoms: _255  and  _257
REMARK   89  A    between atoms: _257  and  _258
REMARK   90  A    between atoms: _260  and  _262
REMARK   91  A    between atoms: _262  and  _263
REMARK   92  A    between atoms: _262  and  _265
REMARK   93  A    between atoms: _265  and  _266
REMARK   94  A    between atoms: _266  and  _267
REMARK   95  A    between atoms: _267  and  _268
REMARK   96  A    between atoms: _268  and  _269
REMARK   97  A    between atoms: _273  and  _275
REMARK   98  A    between atoms: _275  and  _276
REMARK   99  A    between atoms: _275  and  _278
REMARK  100  A    between atoms: _281  and  _283
REMARK  101  A    between atoms: _283  and  _284
REMARK  102  A    between atoms: _283  and  _286
REMARK  103  A    between atoms: _286  and  _287
REMARK  104  A    between atoms: _287  and  _288
REMARK  105  A    between atoms: _293  and  _295
REMARK  106  A    between atoms: _295  and  _296
REMARK  107  A    between atoms: _295  and  _298
REMARK  108  A    between atoms: _298  and  _299
REMARK  109  A    between atoms: _302  and  _304
REMARK  110  A    between atoms: _304  and  _305
REMARK  111  A    between atoms: _308  and  _310
REMARK  112  A    between atoms: _310  and  _311
REMARK  113  A    between atoms: _310  and  _313
REMARK  114  A    between atoms: _316  and  _318
REMARK  115  A    between atoms: _318  and  _319
REMARK  116  A    between atoms: _318  and  _321
REMARK  117  A    between atoms: _321  and  _322
REMARK  118  A    between atoms: _325  and  _327
REMARK  119  A    between atoms: _327  and  _328
REMARK  120  A    between atoms: _327  and  _330
REMARK  121  A    between atoms: _330  and  _331
REMARK  122  A    between atoms: _333  and  _335
REMARK  123  A    between atoms: _335  and  _336
REMARK  124  A    between atoms: _335  and  _338
REMARK  125  A    between atoms: _338  and  _339
REMARK  126  A    between atoms: _342  and  _344
REMARK  127  A    between atoms: _344  and  _345
REMARK  128  A    between atoms: _344  and  _347
REMARK  129  A    between atoms: _347  and  _348
REMARK  130  A    between atoms: _351  and  _353
REMARK  131  A    between atoms: _353  and  _354
REMARK  132  A    between atoms: _353  and  _356
REMARK  133  A    between atoms: _356  and  _357
REMARK  134  A    between atoms: _361  and  _362
REMARK  135  A    between atoms: _368  and  _369
REMARK  136  A    between atoms: _374  and  _376
REMARK  137  A    between atoms: _376  and  _377
REMARK  138  A    between atoms: _376  and  _379
REMARK  139  A    between atoms: _379  and  _380
REMARK  140  A    between atoms: _383  and  _385
REMARK  141  A    between atoms: _385  and  _386
REMARK  142  A    between atoms: _385  and  _388
REMARK  143  A    between atoms: _388  and  _389
REMARK  144  A    between atoms: _392  and  _394
REMARK  145  A    between atoms: _394  and  _395
REMARK  146  A    between atoms: _394  and  _397
REMARK  147  A    between atoms: _399  and  _401
REMARK  148  A    between atoms: _401  and  _402
REMARK  149  A    between atoms: _401  and  _404
REMARK  150  A    between atoms: _407  and  _409
REMARK  151  A    between atoms: _409  and  _410
REMARK  152  A    between atoms: _409  and  _412
REMARK  153  A    between atoms: _412  and  _413
REMARK  154  A    between atoms: _423  and  _425
REMARK  155  A    between atoms: _425  and  _426
REMARK  156  A    between atoms: _425  and  _428
REMARK  157  A    between atoms: _428  and  _429
REMARK  158  A    between atoms: _434  and  _436
REMARK  159  A    between atoms: _436  and  _437
REMARK  160  A    between atoms: _436  and  _439
REMARK  161  A    between atoms: _439  and  _440
REMARK  162  A    between atoms: _440  and  _441
REMARK  163  A    between atoms: _441  and  _442
REMARK                            x       y       z     vdW  Elec       q    Type
REMARK                         _______ _______ _______ _____ _____    ______ ____
ROOT
ATOM      1  NE  ARG A   1       2.449  -4.142  21.154  0.00  0.00    +0.330 N 
ATOM      2  CZ  ARG A   1       2.637  -3.126  21.994  0.00  0.00    +0.000 C 
ATOM      3  NH2 ARG A   1       3.873  -2.920  22.457  0.00  0.00    +0.330 N 
ATOM      4 HH21 ARG A   1       4.058  -2.136  23.115  0.00  0.00    +0.000 HD
ATOM      5 HH22 ARG A   1       4.650  -3.544  22.160  0.00  0.00    +0.000 HD
ATOM      6  NH1 ARG A   1       1.628  -2.344  22.351  0.00  0.00    +0.330 N 
ATOM      7 HH11 ARG A   1       1.789  -1.554  23.008  0.00  0.00    +0.000 HD
ATOM      8 HH12 ARG A   1       0.675  -2.520  21.974  0.00  0.00    +0.000 HD
ATOM      9  HE  ARG A   1       3.252  -4.781  20.984  0.00  0.00    +0.000 HD
ENDROOT
BRANCH   1  10
ATOM     10  CD  ARG A   1       1.181  -4.431  20.443  0.00  0.00    +0.000 C 
BRANCH  10  11
ATOM     11  CG  ARG A   1       1.272  -5.762  19.749  0.00  0.00    +0.000 C 
BRANCH  11  12
ATOM     12  CB  ARG A   1       0.157  -5.978  18.732  0.00  0.00    +0.000 C 
BRANCH  12  13
ATOM     13  CA  ARG A   1       0.071  -7.424  18.221  0.00  0.00    +0.000 C 
BRANCH  13  14
ATOM     14  N   ARG A   1      -0.892  -7.505  17.125  0.00  0.00    +0.000 NA
ATOM     15  H   ARG A   1      -1.685  -6.832  17.111  0.00  0.00    +0.000 HD
ENDBRANCH  13  14
BRANCH  13  16
ATOM     16  C   ARG A   1      -0.403  -8.345  19.341  0.00  0.00    +0.000 C 
ATOM     17  O   ARG A   1      -1.595  -8.347  19.644  0.00  0.00    +0.000 OA
ENDBRANCH  13  16
ENDBRANCH  12  13
ENDBRANCH  11  12
ENDBRANCH  10  11
ENDBRANCH   1  10
TORSDOF 6
REMARK  Name = ../refined-set-2016/3oim/3oim_pocket.pdb
REMARK  163 active torsions:
REMARK  status: ('A' for Active; 'I' for Inactive)
REMARK    1  A    between atoms: _1  and  _3
REMARK    2  A    between atoms: _3  and  _4
REMARK    3  A    between atoms: _3  and  _6
REMARK    4  A    between atoms: _6  and  _7
REMARK    5  A    between atoms: _17  and  _19
REMARK    6  A    between atoms: _19  and  _20
REMARK    7  A    between atoms: _19  and  _22
REMARK    8  A    between atoms: _22  and  _23
REMARK    9  A    between atoms: _28  and  _29
REMARK   10  A    between atoms: _31  and  _33
REMARK   11  A    between atoms: _33  and  _34
REMARK   12  A    between atoms: _33  and  _36
REMARK   13  A    between atoms: _36  and  _37
REMARK   14  A    between atoms: _43  and  _45
REMARK   15  A    between atoms: _45  and  _46
REMARK   16  A    between atoms: _45  and  _48
REMARK   17  A    between atoms: _48  and  _49
REMARK   18  A    between atoms: _52  and  _53
REMARK   19  A    between atoms: _58  and  _60
REMARK   20  A    between atoms: _60  and  _61
REMARK   21  A    between atoms: _60  and  _63
REMARK   22  A    between atoms: _63  and  _64
REMARK   23  A    between atoms: _69  and  _71
REMARK   24  A    between atoms: _71  and  _72
REMARK   25  A    between atoms: _71  and  _74
REMARK   26  A    between atoms: _74  and  _75
REMARK   27  A    between atoms: _80  and  _82
REMARK   28  A    between atoms: _82  and  _83
REMARK   29  A    between atoms: _86  and  _88
REMARK   30  A    between atoms: _88  and  _89
REMARK   31  A    between atoms: _88  and  _91
REMARK   32  A    between atoms: _91  and  _92
REMARK   33  A    between atoms: _97  and  _99
REMARK   34  A    between atoms: _99  and  _100
REMARK   35  A    between atoms: _99  and  _102
REMARK   36  A    between atoms: _102  and  _103
REMARK   37  A    between atoms: _106  and  _108
REMARK   38  A    between atoms: _108  and  _109
REMARK   39  A    between atoms: _108  and  _111
REMARK   40  A    between atoms: _111  and  _112
REMARK   41  A    between atoms: _112  and  _113
REMARK   42  A    between atoms: _118  and  _120
REMARK   43  A    between atoms: _120  and  _121
REMARK   44  A    between atoms: _120  and  _123
REMARK   45  A    between atoms: _123  and  _124
REMARK   46  A    between atoms: _130  and  _132
REMARK   47  A    between atoms: _143  and  _146
REMARK   48  A    between atoms: _146  and  _147
REMARK   49  A    between atoms: _155  and  _156
REMARK   50  A    between atoms: _164  and  _166
REMARK   51  A    between atoms: _166  and  _167
REMARK   52  A    between atoms: _166  and  _169
REMARK   53  A    between atoms: _169  and  _170
REMARK   54  A    between atoms: _170  and  _171
REMARK   55  A    between atoms: _174  and  _176
REMARK   56  A    between atoms: _176  and  _177
REMARK   57  A    between atoms: _176  and  _179
REMARK   58  A    between atoms: _179  and  _180
REMARK   59  A    between atoms: _185  and  _187
REMARK   60  A    between atoms: _187  and  _188
REMARK   61  A    between atoms: _187  and  _190
REMARK   62  A    between atoms: _190  and  _191
REMARK   63  A    between atoms: _191  and  _192
REMARK   64  A    between atoms: _195  and  _197
REMARK   65  A    between atoms: _197  and  _198
REMARK   66  A    between atoms: _197  and  _200
REMARK   67  A    between atoms: _200  and  _201
REMARK   68  A    between atoms: _204  and  _206
REMARK   69  A    between atoms: _206  and  _207
REMARK   70  A    between atoms: _206  and  _209
REMARK   71  A    between atoms: _209  and  _210
REMARK   72  A    between atoms: _211  and  ZN_451
REMARK   73  A    between atoms: _215  and  _217
REMARK   74  A    between atoms: _217  and  _218
REMARK   75  A    between atoms: _217  and  _220
REMARK   76  A    between atoms: _220  and  _221
REMARK   77  A    between atoms: _224  and  _226
REMARK   78  A    between atoms: _226  and  _227
REMARK   79  A    between atoms: _226  and  _229
REMARK   80  A    between atoms: _232  and  _234
REMARK   81  A    between atoms: _234  and  _235
REMARK   82  A    between atoms: _234  and  _237
REMARK   83  A    between atoms: _237  and  _238
REMARK   84  A    between atoms: _243  and  _245
REMARK   85  A    between atoms: _245  and  _246
REMARK   86  A    between atoms: _245  and  _248
REMARK   87  A    between atoms: _248  and  _249
REMARK   88  A    between atoms: _255  and  _257
REMARK   89  A    between atoms: _257  and  _258
REMARK   90  A    between atoms: _260  and  _262
REMARK   91  A    between atoms: _262  and  _263
REMARK   92  A    between atoms: _262  and  _265
REMARK   93  A    between atoms: _265  and  _266
REMARK   94  A    between atoms: _266  and  _267
REMARK   95  A    between atoms: _267  and  _268
REMARK   96  A    between atoms: _268  and  _269
REMARK   97  A    between atoms: _273  and  _275
REMARK   98  A    between atoms: _275  and  _276
REMARK   99  A    between atoms: _275  and  _278
REMARK  100  A    between atoms: _281  and  _283
REMARK  101  A    between atoms: _283  and  _284
REMARK  102  A    between atoms: _283  and  _286
REMARK  103  A    between atoms: _286  and  _287
REMARK  104  A    between atoms: _287  and  _288
REMARK  105  A    between atoms: _293  and  _295
REMARK  106  A    between atoms: _295  and  _296
REMARK  107  A    between atoms: _295  and  _298
REMARK  108  A    between atoms: _298  and  _299
REMARK  109  A    between atoms: _302  and  _304
REMARK  110  A    between atoms: _304  and  _305
REMARK  111  A    between atoms: _308  and  _310
REMARK  112  A    between atoms: _310  and  _311
REMARK  113  A    between atoms: _310  and  _313
REMARK  114  A    between atoms: _316  and  _318
REMARK  115  A    between atoms: _318  and  _319
REMARK  116  A    between atoms: _318  and  _321
REMARK  117  A    between atoms: _321  and  _322
REMARK  118  A    between atoms: _325  and  _327
REMARK  119  A    between atoms: _327  and  _328
REMARK  120  A    between atoms: _327  and  _330
REMARK  121  A    between atoms: _330  and  _331
REMARK  122  A    between atoms: _333  and  _335
REMARK  123  A    between atoms: _335  and  _336
REMARK  124  A    between atoms: _335  and  _338
REMARK  125  A    between atoms: _338  and  _339
REMARK  126  A    between atoms: _342  and  _344
REMARK  127  A    between atoms: _344  and  _345
REMARK  128  A    between atoms: _344  and  _347
REMARK  129  A    between atoms: _347  and  _348
REMARK  130  A    between atoms: _351  and  _353
REMARK  131  A    between atoms: _353  and  _354
REMARK  132  A    between atoms: _353  and  _356
REMARK  133  A    between atoms: _356  and  _357
REMARK  134  A    between atoms: _361  and  _362
REMARK  135  A    between atoms: _368  and  _369
REMARK  136  A    between atoms: _374  and  _376
REMARK  137  A    between atoms: _376  and  _377
REMARK  138  A    between atoms: _376  and  _379
REMARK  139  A    between atoms: _379  and  _380
REMARK  140  A    between atoms: _383  and  _385
REMARK  141  A    between atoms: _385  and  _386
REMARK  142  A    between atoms: _385  and  _388
REMARK  143  A    between atoms: _388  and  _389
REMARK  144  A    between atoms: _392  and  _394
REMARK  145  A    between atoms: _394  and  _395
REMARK  146  A    between atoms: _394  and  _397
REMARK  147  A    between atoms: _399  and  _401
REMARK  148  A    between atoms: _401  and  _402
REMARK  149  A    between atoms: _401  and  _404
REMARK  150  A    between atoms: _407  and  _409
REMARK  151  A    between atoms: _409  and  _410
REMARK  152  A    between atoms: _409  and  _412
REMARK  153  A    between atoms: _412  and  _413
REMARK  154  A    between atoms: _423  and  _425
REMARK  155  A    between atoms: _425  and  _426
REMARK  156  A    between atoms: _425  and  _428
REMARK  157  A    between atoms: _428  and  _429
REMARK  158  A    between atoms: _434  and  _436
REMARK  159  A    between atoms: _436  and  _437
REMARK  160  A    between atoms: _436  and  _439
REMARK  161  A    between atoms: _439  and  _440
REMARK  162  A    between atoms: _440  and  _441
REMARK  163  A    between atoms: _441  and  _442
REMARK                            x       y       z     vdW  Elec       q    Type
REMARK                         _______ _______ _______ _____ _____    ______ ____
ROOT
ATOM      1  O   HOH     1      -1.042  -4.339  15.651  0.00  0.00    +0.000 OA
ENDROOT
TORSDOF 0
REMARK  Name = ../refined-set-2016/3oim/3oim_pocket.pdb
REMARK  163 active torsions:
REMARK  status: ('A' for Active; 'I' for Inactive)
REMARK    1  A    between atoms: _1  and  _3
REMARK    2  A    between atoms: _3  and  _4
REMARK    3  A    between atoms: _3  and  _6
REMARK    4  A    between atoms: _6  and  _7
REMARK    5  A    between atoms: _17  and  _19
REMARK    6  A    between atoms: _19  and  _20
REMARK    7  A    between atoms: _19  and  _22
REMARK    8  A    between atoms: _22  and  _23
REMARK    9  A    between atoms: _28  and  _29
REMARK   10  A    between atoms: _31  and  _33
REMARK   11  A    between atoms: _33  and  _34
REMARK   12  A    between atoms: _33  and  _36
REMARK   13  A    between atoms: _36  and  _37
REMARK   14  A    between atoms: _43  and  _45
REMARK   15  A    between atoms: _45  and  _46
REMARK   16  A    between atoms: _45  and  _48
REMARK   17  A    between atoms: _48  and  _49
REMARK   18  A    between atoms: _52  and  _53
REMARK   19  A    between atoms: _58  and  _60
REMARK   20  A    between atoms: _60  and  _61
REMARK   21  A    between atoms: _60  and  _63
REMARK   22  A    between atoms: _63  and  _64
REMARK   23  A    between atoms: _69  and  _71
REMARK   24  A    between atoms: _71  and  _72
REMARK   25  A    between atoms: _71  and  _74
REMARK   26  A    between atoms: _74  and  _75
REMARK   27  A    between atoms: _80  and  _82
REMARK   28  A    between atoms: _82  and  _83
REMARK   29  A    between atoms: _86  and  _88
REMARK   30  A    between atoms: _88  and  _89
REMARK   31  A    between atoms: _88  and  _91
REMARK   32  A    between atoms: _91  and  _92
REMARK   33  A    between atoms: _97  and  _99
REMARK   34  A    between atoms: _99  and  _100
REMARK   35  A    between atoms: _99  and  _102
REMARK   36  A    between atoms: _102  and  _103
REMARK   37  A    between atoms: _106  and  _108
REMARK   38  A    between atoms: _108  and  _109
REMARK   39  A    between atoms: _108  and  _111
REMARK   40  A    between atoms: _111  and  _112
REMARK   41  A    between atoms: _112  and  _113
REMARK   42  A    between atoms: _118  and  _120
REMARK   43  A    between atoms: _120  and  _121
REMARK   44  A    between atoms: _120  and  _123
REMARK   45  A    between atoms: _123  and  _124
REMARK   46  A    between atoms: _130  and  _132
REMARK   47  A    between atoms: _143  and  _146
REMARK   48  A    between atoms: _146  and  _147
REMARK   49  A    between atoms: _155  and  _156
REMARK   50  A    between atoms: _164  and  _166
REMARK   51  A    between atoms: _166  and  _167
REMARK   52  A    between atoms: _166  and  _169
REMARK   53  A    between atoms: _169  and  _170
REMARK   54  A    between atoms: _170  and  _171
REMARK   55  A    between atoms: _174  and  _176
REMARK   56  A    between atoms: _176  and  _177
REMARK   57  A    between atoms: _176  and  _179
REMARK   58  A    between atoms: _179  and  _180
REMARK   59  A    between atoms: _185  and  _187
REMARK   60  A    between atoms: _187  and  _188
REMARK   61  A    between atoms: _187  and  _190
REMARK   62  A    between atoms: _190  and  _191
REMARK   63  A    between atoms: _191  and  _192
REMARK   64  A    between atoms: _195  and  _197
REMARK   65  A    between atoms: _197  and  _198
REMARK   66  A    between atoms: _197  and  _200
REMARK   67  A    between atoms: _200  and  _201
REMARK   68  A    between atoms: _204  and  _206
REMARK   69  A    between atoms: _206  and  _207
REMARK   70  A    between atoms: _206  and  _209
REMARK   71  A    between atoms: _209  and  _210
REMARK   72  A    between atoms: _211  and  ZN_451
REMARK   73  A    between atoms: _215  and  _217
REMARK   74  A    between atoms: _217  and  _218
REMARK   75  A    between atoms: _217  and  _220
REMARK   76  A    between atoms: _220  and  _221
REMARK   77  A    between atoms: _224  and  _226
REMARK   78  A    between atoms: _226  and  _227
REMARK   79  A    between atoms: _226  and  _229
REMARK   80  A    between atoms: _232  and  _234
REMARK   81  A    between atoms: _234  and  _235
REMARK   82  A    between atoms: _234  and  _237
REMARK   83  A    between atoms: _237  and  _238
REMARK   84  A    between atoms: _243  and  _245
REMARK   85  A    between atoms: _245  and  _246
REMARK   86  A    between atoms: _245  and  _248
REMARK   87  A    between atoms: _248  and  _249
REMARK   88  A    between atoms: _255  and  _257
REMARK   89  A    between atoms: _257  and  _258
REMARK   90  A    between atoms: _260  and  _262
REMARK   91  A    between atoms: _262  and  _263
REMARK   92  A    between atoms: _262  and  _265
REMARK   93  A    between atoms: _265  and  _266
REMARK   94  A    between atoms: _266  and  _267
REMARK   95  A    between atoms: _267  and  _268
REMARK   96  A    between atoms: _268  and  _269
REMARK   97  A    between atoms: _273  and  _275
REMARK   98  A    between atoms: _275  and  _276
REMARK   99  A    between atoms: _275  and  _278
REMARK  100  A    between atoms: _281  and  _283
REMARK  101  A    between atoms: _283  and  _284
REMARK  102  A    between atoms: _283  and  _286
REMARK  103  A    between atoms: _286  and  _287
REMARK  104  A    between atoms: _287  and  _288
REMARK  105  A    between atoms: _293  and  _295
REMARK  106  A    between atoms: _295  and  _296
REMARK  107  A    between atoms: _295  and  _298
REMARK  108  A    between atoms: _298  and  _299
REMARK  109  A    between atoms: _302  and  _304
REMARK  110  A    between atoms: _304  and  _305
REMARK  111  A    between atoms: _308  and  _310
REMARK  112  A    between atoms: _310  and  _311
REMARK  113  A    between atoms: _310  and  _313
REMARK  114  A    between atoms: _316  and  _318
REMARK  115  A    between atoms: _318  and  _319
REMARK  116  A    between atoms: _318  and  _321
REMARK  117  A    between atoms: _321  and  _322
REMARK  118  A    between atoms: _325  and  _327
REMARK  119  A    between atoms: _327  and  _328
REMARK  120  A    between atoms: _327  and  _330
REMARK  121  A    between atoms: _330  and  _331
REMARK  122  A    between atoms: _333  and  _335
REMARK  123  A    between atoms: _335  and  _336
REMARK  124  A    between atoms: _335  and  _338
REMARK  125  A    between atoms: _338  and  _339
REMARK  126  A    between atoms: _342  and  _344
REMARK  127  A    between atoms: _344  and  _345
REMARK  128  A    between atoms: _344  and  _347
REMARK  129  A    between atoms: _347  and  _348
REMARK  130  A    between atoms: _351  and  _353
REMARK  131  A    between atoms: _353  and  _354
REMARK  132  A    between atoms: _353  and  _356
REMARK  133  A    between atoms: _356  and  _357
REMARK  134  A    between atoms: _361  and  _362
REMARK  135  A    between atoms: _368  and  _369
REMARK  136  A    between atoms: _374  and  _376
REMARK  137  A    between atoms: _376  and  _377
REMARK  138  A    between atoms: _376  and  _379
REMARK  139  A    between atoms: _379  and  _380
REMARK  140  A    between atoms: _383  and  _385
REMARK  141  A    between atoms: _385  and  _386
REMARK  142  A    between atoms: _385  and  _388
REMARK  143  A    between atoms: _388  and  _389
REMARK  144  A    between atoms: _392  and  _394
REMARK  145  A    between atoms: _394  and  _395
REMARK  146  A    between atoms: _394  and  _397
REMARK  147  A    between atoms: _399  and  _401
REMARK  148  A    between atoms: _401  and  _402
REMARK  149  A    between atoms: _401  and  _404
REMARK  150  A    between atoms: _407  and  _409
REMARK  151  A    between atoms: _409  and  _410
REMARK  152  A    between atoms: _409  and  _412
REMARK  153  A    between atoms: _412  and  _413
REMARK  154  A    between atoms: _423  and  _425
REMARK  155  A    between atoms: _425  and  _426
REMARK  156  A    between atoms: _425  and  _428
REMARK  157  A    between atoms: _428  and  _429
REMARK  158  A    between atoms: _434  and  _436
REMARK  159  A    between atoms: _436  and  _437
REMARK  160  A    between atoms: _436  and  _439
REMARK  161  A    between atoms: _439  and  _440
REMARK  162  A    between atoms: _440  and  _441
REMARK  163  A    between atoms: _441  and  _442
REMARK                            x       y       z     vdW  Elec       q    Type
REMARK                         _______ _______ _______ _____ _____    ______ ____
ROOT
ATOM      1  O   HOH     1      -2.376  -3.376  11.433  0.00  0.00    +0.000 OA
ENDROOT
TORSDOF 0
REMARK  Name = ../refined-set-2016/3oim/3oim_pocket.pdb
REMARK  163 active torsions:
REMARK  status: ('A' for Active; 'I' for Inactive)
REMARK    1  A    between atoms: _1  and  _3
REMARK    2  A    between atoms: _3  and  _4
REMARK    3  A    between atoms: _3  and  _6
REMARK    4  A    between atoms: _6  and  _7
REMARK    5  A    between atoms: _17  and  _19
REMARK    6  A    between atoms: _19  and  _20
REMARK    7  A    between atoms: _19  and  _22
REMARK    8  A    between atoms: _22  and  _23
REMARK    9  A    between atoms: _28  and  _29
REMARK   10  A    between atoms: _31  and  _33
REMARK   11  A    between atoms: _33  and  _34
REMARK   12  A    between atoms: _33  and  _36
REMARK   13  A    between atoms: _36  and  _37
REMARK   14  A    between atoms: _43  and  _45
REMARK   15  A    between atoms: _45  and  _46
REMARK   16  A    between atoms: _45  and  _48
REMARK   17  A    between atoms: _48  and  _49
REMARK   18  A    between atoms: _52  and  _53
REMARK   19  A    between atoms: _58  and  _60
REMARK   20  A    between atoms: _60  and  _61
REMARK   21  A    between atoms: _60  and  _63
REMARK   22  A    between atoms: _63  and  _64
REMARK   23  A    between atoms: _69  and  _71
REMARK   24  A    between atoms: _71  and  _72
REMARK   25  A    between atoms: _71  and  _74
REMARK   26  A    between atoms: _74  and  _75
REMARK   27  A    between atoms: _80  and  _82
REMARK   28  A    between atoms: _82  and  _83
REMARK   29  A    between atoms: _86  and  _88
REMARK   30  A    between atoms: _88  and  _89
REMARK   31  A    between atoms: _88  and  _91
REMARK   32  A    between atoms: _91  and  _92
REMARK   33  A    between atoms: _97  and  _99
REMARK   34  A    between atoms: _99  and  _100
REMARK   35  A    between atoms: _99  and  _102
REMARK   36  A    between atoms: _102  and  _103
REMARK   37  A    between atoms: _106  and  _108
REMARK   38  A    between atoms: _108  and  _109
REMARK   39  A    between atoms: _108  and  _111
REMARK   40  A    between atoms: _111  and  _112
REMARK   41  A    between atoms: _112  and  _113
REMARK   42  A    between atoms: _118  and  _120
REMARK   43  A    between atoms: _120  and  _121
REMARK   44  A    between atoms: _120  and  _123
REMARK   45  A    between atoms: _123  and  _124
REMARK   46  A    between atoms: _130  and  _132
REMARK   47  A    between atoms: _143  and  _146
REMARK   48  A    between atoms: _146  and  _147
REMARK   49  A    between atoms: _155  and  _156
REMARK   50  A    between atoms: _164  and  _166
REMARK   51  A    between atoms: _166  and  _167
REMARK   52  A    between atoms: _166  and  _169
REMARK   53  A    between atoms: _169  and  _170
REMARK   54  A    between atoms: _170  and  _171
REMARK   55  A    between atoms: _174  and  _176
REMARK   56  A    between atoms: _176  and  _177
REMARK   57  A    between atoms: _176  and  _179
REMARK   58  A    between atoms: _179  and  _180
REMARK   59  A    between atoms: _185  and  _187
REMARK   60  A    between atoms: _187  and  _188
REMARK   61  A    between atoms: _187  and  _190
REMARK   62  A    between atoms: _190  and  _191
REMARK   63  A    between atoms: _191  and  _192
REMARK   64  A    between atoms: _195  and  _197
REMARK   65  A    between atoms: _197  and  _198
REMARK   66  A    between atoms: _197  and  _200
REMARK   67  A    between atoms: _200  and  _201
REMARK   68  A    between atoms: _204  and  _206
REMARK   69  A    between atoms: _206  and  _207
REMARK   70  A    between atoms: _206  and  _209
REMARK   71  A    between atoms: _209  and  _210
REMARK   72  A    between atoms: _211  and  ZN_451
REMARK   73  A    between atoms: _215  and  _217
REMARK   74  A    between atoms: _217  and  _218
REMARK   75  A    between atoms: _217  and  _220
REMARK   76  A    between atoms: _220  and  _221
REMARK   77  A    between atoms: _224  and  _226
REMARK   78  A    between atoms: _226  and  _227
REMARK   79  A    between atoms: _226  and  _229
REMARK   80  A    between atoms: _232  and  _234
REMARK   81  A    between atoms: _234  and  _235
REMARK   82  A    between atoms: _234  and  _237
REMARK   83  A    between atoms: _237  and  _238
REMARK   84  A    between atoms: _243  and  _245
REMARK   85  A    between atoms: _245  and  _246
REMARK   86  A    between atoms: _245  and  _248
REMARK   87  A    between atoms: _248  and  _249
REMARK   88  A    between atoms: _255  and  _257
REMARK   89  A    between atoms: _257  and  _258
REMARK   90  A    between atoms: _260  and  _262
REMARK   91  A    between atoms: _262  and  _263
REMARK   92  A    between atoms: _262  and  _265
REMARK   93  A    between atoms: _265  and  _266
REMARK   94  A    between atoms: _266  and  _267
REMARK   95  A    between atoms: _267  and  _268
REMARK   96  A    between atoms: _268  and  _269
REMARK   97  A    between atoms: _273  and  _275
REMARK   98  A    between atoms: _275  and  _276
REMARK   99  A    between atoms: _275  and  _278
REMARK  100  A    between atoms: _281  and  _283
REMARK  101  A    between atoms: _283  and  _284
REMARK  102  A    between atoms: _283  and  _286
REMARK  103  A    between atoms: _286  and  _287
REMARK  104  A    between atoms: _287  and  _288
REMARK  105  A    between atoms: _293  and  _295
REMARK  106  A    between atoms: _295  and  _296
REMARK  107  A    between atoms: _295  and  _298
REMARK  108  A    between atoms: _298  and  _299
REMARK  109  A    between atoms: _302  and  _304
REMARK  110  A    between atoms: _304  and  _305
REMARK  111  A    between atoms: _308  and  _310
REMARK  112  A    between atoms: _310  and  _311
REMARK  113  A    between atoms: _310  and  _313
REMARK  114  A    between atoms: _316  and  _318
REMARK  115  A    between atoms: _318  and  _319
REMARK  116  A    between atoms: _318  and  _321
REMARK  117  A    between atoms: _321  and  _322
REMARK  118  A    between atoms: _325  and  _327
REMARK  119  A    between atoms: _327  and  _328
REMARK  120  A    between atoms: _327  and  _330
REMARK  121  A    between atoms: _330  and  _331
REMARK  122  A    between atoms: _333  and  _335
REMARK  123  A    between atoms: _335  and  _336
REMARK  124  A    between atoms: _335  and  _338
REMARK  125  A    between atoms: _338  and  _339
REMARK  126  A    between atoms: _342  and  _344
REMARK  127  A    between atoms: _344  and  _345
REMARK  128  A    between atoms: _344  and  _347
REMARK  129  A    between atoms: _347  and  _348
REMARK  130  A    between atoms: _351  and  _353
REMARK  131  A    between atoms: _353  and  _354
REMARK  132  A    between atoms: _353  and  _356
REMARK  133  A    between atoms: _356  and  _357
REMARK  134  A    between atoms: _361  and  _362
REMARK  135  A    between atoms: _368  and  _369
REMARK  136  A    between atoms: _374  and  _376
REMARK  137  A    between atoms: _376  and  _377
REMARK  138  A    between atoms: _376  and  _379
REMARK  139  A    between atoms: _379  and  _380
REMARK  140  A    between atoms: _383  and  _385
REMARK  141  A    between atoms: _385  and  _386
REMARK  142  A    between atoms: _385  and  _388
REMARK  143  A    between atoms: _388  and  _389
REMARK  144  A    between atoms: _392  and  _394
REMARK  145  A    between atoms: _394  and  _395
REMARK  146  A    between atoms: _394  and  _397
REMARK  147  A    between atoms: _399  and  _401
REMARK  148  A    between atoms: _401  and  _402
REMARK  149  A    between atoms: _401  and  _404
REMARK  150  A    between atoms: _407  and  _409
REMARK  151  A    between atoms: _409  and  _410
REMARK  152  A    between atoms: _409  and  _412
REMARK  153  A    between atoms: _412  and  _413
REMARK  154  A    between atoms: _423  and  _425
REMARK  155  A    between atoms: _425  and  _426
REMARK  156  A    between atoms: _425  and  _428
REMARK  157  A    between atoms: _428  and  _429
REMARK  158  A    between atoms: _434  and  _436
REMARK  159  A    between atoms: _436  and  _437
REMARK  160  A    between atoms: _436  and  _439
REMARK  161  A    between atoms: _439  and  _440
REMARK  162  A    between atoms: _440  and  _441
REMARK  163  A    between atoms: _441  and  _442
REMARK                            x       y       z     vdW  Elec       q    Type
REMARK                         _______ _______ _______ _____ _____    ______ ____
ROOT
ATOM      1  O   HOH     1       3.238   4.041  11.960  0.00  0.00    +0.000 OA
ENDROOT
TORSDOF 0
REMARK  Name = ../refined-set-2016/3oim/3oim_pocket.pdb
REMARK  163 active torsions:
REMARK  status: ('A' for Active; 'I' for Inactive)
REMARK    1  A    between atoms: _1  and  _3
REMARK    2  A    between atoms: _3  and  _4
REMARK    3  A    between atoms: _3  and  _6
REMARK    4  A    between atoms: _6  and  _7
REMARK    5  A    between atoms: _17  and  _19
REMARK    6  A    between atoms: _19  and  _20
REMARK    7  A    between atoms: _19  and  _22
REMARK    8  A    between atoms: _22  and  _23
REMARK    9  A    between atoms: _28  and  _29
REMARK   10  A    between atoms: _31  and  _33
REMARK   11  A    between atoms: _33  and  _34
REMARK   12  A    between atoms: _33  and  _36
REMARK   13  A    between atoms: _36  and  _37
REMARK   14  A    between atoms: _43  and  _45
REMARK   15  A    between atoms: _45  and  _46
REMARK   16  A    between atoms: _45  and  _48
REMARK   17  A    between atoms: _48  and  _49
REMARK   18  A    between atoms: _52  and  _53
REMARK   19  A    between atoms: _58  and  _60
REMARK   20  A    between atoms: _60  and  _61
REMARK   21  A    between atoms: _60  and  _63
REMARK   22  A    between atoms: _63  and  _64
REMARK   23  A    between atoms: _69  and  _71
REMARK   24  A    between atoms: _71  and  _72
REMARK   25  A    between atoms: _71  and  _74
REMARK   26  A    between atoms: _74  and  _75
REMARK   27  A    between atoms: _80  and  _82
REMARK   28  A    between atoms: _82  and  _83
REMARK   29  A    between atoms: _86  and  _88
REMARK   30  A    between atoms: _88  and  _89
REMARK   31  A    between atoms: _88  and  _91
REMARK   32  A    between atoms: _91  and  _92
REMARK   33  A    between atoms: _97  and  _99
REMARK   34  A    between atoms: _99  and  _100
REMARK   35  A    between atoms: _99  and  _102
REMARK   36  A    between atoms: _102  and  _103
REMARK   37  A    between atoms: _106  and  _108
REMARK   38  A    between atoms: _108  and  _109
REMARK   39  A    between atoms: _108  and  _111
REMARK   40  A    between atoms: _111  and  _112
REMARK   41  A    between atoms: _112  and  _113
REMARK   42  A    between atoms: _118  and  _120
REMARK   43  A    between atoms: _120  and  _121
REMARK   44  A    between atoms: _120  and  _123
REMARK   45  A    between atoms: _123  and  _124
REMARK   46  A    between atoms: _130  and  _132
REMARK   47  A    between atoms: _143  and  _146
REMARK   48  A    between atoms: _146  and  _147
REMARK   49  A    between atoms: _155  and  _156
REMARK   50  A    between atoms: _164  and  _166
REMARK   51  A    between atoms: _166  and  _167
REMARK   52  A    between atoms: _166  and  _169
REMARK   53  A    between atoms: _169  and  _170
REMARK   54  A    between atoms: _170  and  _171
REMARK   55  A    between atoms: _174  and  _176
REMARK   56  A    between atoms: _176  and  _177
REMARK   57  A    between atoms: _176  and  _179
REMARK   58  A    between atoms: _179  and  _180
REMARK   59  A    between atoms: _185  and  _187
REMARK   60  A    between atoms: _187  and  _188
REMARK   61  A    between atoms: _187  and  _190
REMARK   62  A    between atoms: _190  and  _191
REMARK   63  A    between atoms: _191  and  _192
REMARK   64  A    between atoms: _195  and  _197
REMARK   65  A    between atoms: _197  and  _198
REMARK   66  A    between atoms: _197  and  _200
REMARK   67  A    between atoms: _200  and  _201
REMARK   68  A    between atoms: _204  and  _206
REMARK   69  A    between atoms: _206  and  _207
REMARK   70  A    between atoms: _206  and  _209
REMARK   71  A    between atoms: _209  and  _210
REMARK   72  A    between atoms: _211  and  ZN_451
REMARK   73  A    between atoms: _215  and  _217
REMARK   74  A    between atoms: _217  and  _218
REMARK   75  A    between atoms: _217  and  _220
REMARK   76  A    between atoms: _220  and  _221
REMARK   77  A    between atoms: _224  and  _226
REMARK   78  A    between atoms: _226  and  _227
REMARK   79  A    between atoms: _226  and  _229
REMARK   80  A    between atoms: _232  and  _234
REMARK   81  A    between atoms: _234  and  _235
REMARK   82  A    between atoms: _234  and  _237
REMARK   83  A    between atoms: _237  and  _238
REMARK   84  A    between atoms: _243  and  _245
REMARK   85  A    between atoms: _245  and  _246
REMARK   86  A    between atoms: _245  and  _248
REMARK   87  A    between atoms: _248  and  _249
REMARK   88  A    between atoms: _255  and  _257
REMARK   89  A    between atoms: _257  and  _258
REMARK   90  A    between atoms: _260  and  _262
REMARK   91  A    between atoms: _262  and  _263
REMARK   92  A    between atoms: _262  and  _265
REMARK   93  A    between atoms: _265  and  _266
REMARK   94  A    between atoms: _266  and  _267
REMARK   95  A    between atoms: _267  and  _268
REMARK   96  A    between atoms: _268  and  _269
REMARK   97  A    between atoms: _273  and  _275
REMARK   98  A    between atoms: _275  and  _276
REMARK   99  A    between atoms: _275  and  _278
REMARK  100  A    between atoms: _281  and  _283
REMARK  101  A    between atoms: _283  and  _284
REMARK  102  A    between atoms: _283  and  _286
REMARK  103  A    between atoms: _286  and  _287
REMARK  104  A    between atoms: _287  and  _288
REMARK  105  A    between atoms: _293  and  _295
REMARK  106  A    between atoms: _295  and  _296
REMARK  107  A    between atoms: _295  and  _298
REMARK  108  A    between atoms: _298  and  _299
REMARK  109  A    between atoms: _302  and  _304
REMARK  110  A    between atoms: _304  and  _305
REMARK  111  A    between atoms: _308  and  _310
REMARK  112  A    between atoms: _310  and  _311
REMARK  113  A    between atoms: _310  and  _313
REMARK  114  A    between atoms: _316  and  _318
REMARK  115  A    between atoms: _318  and  _319
REMARK  116  A    between atoms: _318  and  _321
REMARK  117  A    between atoms: _321  and  _322
REMARK  118  A    between atoms: _325  and  _327
REMARK  119  A    between atoms: _327  and  _328
REMARK  120  A    between atoms: _327  and  _330
REMARK  121  A    between atoms: _330  and  _331
REMARK  122  A    between atoms: _333  and  _335
REMARK  123  A    between atoms: _335  and  _336
REMARK  124  A    between atoms: _335  and  _338
REMARK  125  A    between atoms: _338  and  _339
REMARK  126  A    between atoms: _342  and  _344
REMARK  127  A    between atoms: _344  and  _345
REMARK  128  A    between atoms: _344  and  _347
REMARK  129  A    between atoms: _347  and  _348
REMARK  130  A    between atoms: _351  and  _353
REMARK  131  A    between atoms: _353  and  _354
REMARK  132  A    between atoms: _353  and  _356
REMARK  133  A    between atoms: _356  and  _357
REMARK  134  A    between atoms: _361  and  _362
REMARK  135  A    between atoms: _368  and  _369
REMARK  136  A    between atoms: _374  and  _376
REMARK  137  A    between atoms: _376  and  _377
REMARK  138  A    between atoms: _376  and  _379
REMARK  139  A    between atoms: _379  and  _380
REMARK  140  A    between atoms: _383  and  _385
REMARK  141  A    between atoms: _385  and  _386
REMARK  142  A    between atoms: _385  and  _388
REMARK  143  A    between atoms: _388  and  _389
REMARK  144  A    between atoms: _392  and  _394
REMARK  145  A    between atoms: _394  and  _395
REMARK  146  A    between atoms: _394  and  _397
REMARK  147  A    between atoms: _399  and  _401
REMARK  148  A    between atoms: _401  and  _402
REMARK  149  A    between atoms: _401  and  _404
REMARK  150  A    between atoms: _407  and  _409
REMARK  151  A    between atoms: _409  and  _410
REMARK  152  A    between atoms: _409  and  _412
REMARK  153  A    between atoms: _412  and  _413
REMARK  154  A    between atoms: _423  and  _425
REMARK  155  A    between atoms: _425  and  _426
REMARK  156  A    between atoms: _425  and  _428
REMARK  157  A    between atoms: _428  and  _429
REMARK  158  A    between atoms: _434  and  _436
REMARK  159  A    between atoms: _436  and  _437
REMARK  160  A    between atoms: _436  and  _439
REMARK  161  A    between atoms: _439  and  _440
REMARK  162  A    between atoms: _440  and  _441
REMARK  163  A    between atoms: _441  and  _442
REMARK                            x       y       z     vdW  Elec       q    Type
REMARK                         _______ _______ _______ _____ _____    ______ ____
ROOT
ATOM      1  O   HOH     1      -0.724   1.038  11.310  0.00  0.00    +0.000 OA
ENDROOT
TORSDOF 0
REMARK  Name = ../refined-set-2016/3oim/3oim_pocket.pdb
REMARK  163 active torsions:
REMARK  status: ('A' for Active; 'I' for Inactive)
REMARK    1  A    between atoms: _1  and  _3
REMARK    2  A    between atoms: _3  and  _4
REMARK    3  A    between atoms: _3  and  _6
REMARK    4  A    between atoms: _6  and  _7
REMARK    5  A    between atoms: _17  and  _19
REMARK    6  A    between atoms: _19  and  _20
REMARK    7  A    between atoms: _19  and  _22
REMARK    8  A    between atoms: _22  and  _23
REMARK    9  A    between atoms: _28  and  _29
REMARK   10  A    between atoms: _31  and  _33
REMARK   11  A    between atoms: _33  and  _34
REMARK   12  A    between atoms: _33  and  _36
REMARK   13  A    between atoms: _36  and  _37
REMARK   14  A    between atoms: _43  and  _45
REMARK   15  A    between atoms: _45  and  _46
REMARK   16  A    between atoms: _45  and  _48
REMARK   17  A    between atoms: _48  and  _49
REMARK   18  A    between atoms: _52  and  _53
REMARK   19  A    between atoms: _58  and  _60
REMARK   20  A    between atoms: _60  and  _61
REMARK   21  A    between atoms: _60  and  _63
REMARK   22  A    between atoms: _63  and  _64
REMARK   23  A    between atoms: _69  and  _71
REMARK   24  A    between atoms: _71  and  _72
REMARK   25  A    between atoms: _71  and  _74
REMARK   26  A    between atoms: _74  and  _75
REMARK   27  A    between atoms: _80  and  _82
REMARK   28  A    between atoms: _82  and  _83
REMARK   29  A    between atoms: _86  and  _88
REMARK   30  A    between atoms: _88  and  _89
REMARK   31  A    between atoms: _88  and  _91
REMARK   32  A    between atoms: _91  and  _92
REMARK   33  A    between atoms: _97  and  _99
REMARK   34  A    between atoms: _99  and  _100
REMARK   35  A    between atoms: _99  and  _102
REMARK   36  A    between atoms: _102  and  _103
REMARK   37  A    between atoms: _106  and  _108
REMARK   38  A    between atoms: _108  and  _109
REMARK   39  A    between atoms: _108  and  _111
REMARK   40  A    between atoms: _111  and  _112
REMARK   41  A    between atoms: _112  and  _113
REMARK   42  A    between atoms: _118  and  _120
REMARK   43  A    between atoms: _120  and  _121
REMARK   44  A    between atoms: _120  and  _123
REMARK   45  A    between atoms: _123  and  _124
REMARK   46  A    between atoms: _130  and  _132
REMARK   47  A    between atoms: _143  and  _146
REMARK   48  A    between atoms: _146  and  _147
REMARK   49  A    between atoms: _155  and  _156
REMARK   50  A    between atoms: _164  and  _166
REMARK   51  A    between atoms: _166  and  _167
REMARK   52  A    between atoms: _166  and  _169
REMARK   53  A    between atoms: _169  and  _170
REMARK   54  A    between atoms: _170  and  _171
REMARK   55  A    between atoms: _174  and  _176
REMARK   56  A    between atoms: _176  and  _177
REMARK   57  A    between atoms: _176  and  _179
REMARK   58  A    between atoms: _179  and  _180
REMARK   59  A    between atoms: _185  and  _187
REMARK   60  A    between atoms: _187  and  _188
REMARK   61  A    between atoms: _187  and  _190
REMARK   62  A    between atoms: _190  and  _191
REMARK   63  A    between atoms: _191  and  _192
REMARK   64  A    between atoms: _195  and  _197
REMARK   65  A    between atoms: _197  and  _198
REMARK   66  A    between atoms: _197  and  _200
REMARK   67  A    between atoms: _200  and  _201
REMARK   68  A    between atoms: _204  and  _206
REMARK   69  A    between atoms: _206  and  _207
REMARK   70  A    between atoms: _206  and  _209
REMARK   71  A    between atoms: _209  and  _210
REMARK   72  A    between atoms: _211  and  ZN_451
REMARK   73  A    between atoms: _215  and  _217
REMARK   74  A    between atoms: _217  and  _218
REMARK   75  A    between atoms: _217  and  _220
REMARK   76  A    between atoms: _220  and  _221
REMARK   77  A    between atoms: _224  and  _226
REMARK   78  A    between atoms: _226  and  _227
REMARK   79  A    between atoms: _226  and  _229
REMARK   80  A    between atoms: _232  and  _234
REMARK   81  A    between atoms: _234  and  _235
REMARK   82  A    between atoms: _234  and  _237
REMARK   83  A    between atoms: _237  and  _238
REMARK   84  A    between atoms: _243  and  _245
REMARK   85  A    between atoms: _245  and  _246
REMARK   86  A    between atoms: _245  and  _248
REMARK   87  A    between atoms: _248  and  _249
REMARK   88  A    between atoms: _255  and  _257
REMARK   89  A    between atoms: _257  and  _258
REMARK   90  A    between atoms: _260  and  _262
REMARK   91  A    between atoms: _262  and  _263
REMARK   92  A    between atoms: _262  and  _265
REMARK   93  A    between atoms: _265  and  _266
REMARK   94  A    between atoms: _266  and  _267
REMARK   95  A    between atoms: _267  and  _268
REMARK   96  A    between atoms: _268  and  _269
REMARK   97  A    between atoms: _273  and  _275
REMARK   98  A    between atoms: _275  and  _276
REMARK   99  A    between atoms: _275  and  _278
REMARK  100  A    between atoms: _281  and  _283
REMARK  101  A    between atoms: _283  and  _284
REMARK  102  A    between atoms: _283  and  _286
REMARK  103  A    between atoms: _286  and  _287
REMARK  104  A    between atoms: _287  and  _288
REMARK  105  A    between atoms: _293  and  _295
REMARK  106  A    between atoms: _295  and  _296
REMARK  107  A    between atoms: _295  and  _298
REMARK  108  A    between atoms: _298  and  _299
REMARK  109  A    between atoms: _302  and  _304
REMARK  110  A    between atoms: _304  and  _305
REMARK  111  A    between atoms: _308  and  _310
REMARK  112  A    between atoms: _310  and  _311
REMARK  113  A    between atoms: _310  and  _313
REMARK  114  A    between atoms: _316  and  _318
REMARK  115  A    between atoms: _318  and  _319
REMARK  116  A    between atoms: _318  and  _321
REMARK  117  A    between atoms: _321  and  _322
REMARK  118  A    between atoms: _325  and  _327
REMARK  119  A    between atoms: _327  and  _328
REMARK  120  A    between atoms: _327  and  _330
REMARK  121  A    between atoms: _330  and  _331
REMARK  122  A    between atoms: _333  and  _335
REMARK  123  A    between atoms: _335  and  _336
REMARK  124  A    between atoms: _335  and  _338
REMARK  125  A    between atoms: _338  and  _339
REMARK  126  A    between atoms: _342  and  _344
REMARK  127  A    between atoms: _344  and  _345
REMARK  128  A    between atoms: _344  and  _347
REMARK  129  A    between atoms: _347  and  _348
REMARK  130  A    between atoms: _351  and  _353
REMARK  131  A    between atoms: _353  and  _354
REMARK  132  A    between atoms: _353  and  _356
REMARK  133  A    between atoms: _356  and  _357
REMARK  134  A    between atoms: _361  and  _362
REMARK  135  A    between atoms: _368  and  _369
REMARK  136  A    between atoms: _374  and  _376
REMARK  137  A    between atoms: _376  and  _377
REMARK  138  A    between atoms: _376  and  _379
REMARK  139  A    between atoms: _379  and  _380
REMARK  140  A    between atoms: _383  and  _385
REMARK  141  A    between atoms: _385  and  _386
REMARK  142  A    between atoms: _385  and  _388
REMARK  143  A    between atoms: _388  and  _389
REMARK  144  A    between atoms: _392  and  _394
REMARK  145  A    between atoms: _394  and  _395
REMARK  146  A    between atoms: _394  and  _397
REMARK  147  A    between atoms: _399  and  _401
REMARK  148  A    between atoms: _401  and  _402
REMARK  149  A    between atoms: _401  and  _404
REMARK  150  A    between atoms: _407  and  _409
REMARK  151  A    between atoms: _409  and  _410
REMARK  152  A    between atoms: _409  and  _412
REMARK  153  A    between atoms: _412  and  _413
REMARK  154  A    between atoms: _423  and  _425
REMARK  155  A    between atoms: _425  and  _426
REMARK  156  A    between atoms: _425  and  _428
REMARK  157  A    between atoms: _428  and  _429
REMARK  158  A    between atoms: _434  and  _436
REMARK  159  A    between atoms: _436  and  _437
REMARK  160  A    between atoms: _436  and  _439
REMARK  161  A    between atoms: _439  and  _440
REMARK  162  A    between atoms: _440  and  _441
REMARK  163  A    between atoms: _441  and  _442
REMARK                            x       y       z     vdW  Elec       q    Type
REMARK                         _______ _______ _______ _____ _____    ______ ____
ROOT
ATOM      1  O   HOH     1      -0.515   3.389   9.490  0.00  0.00    +0.000 OA
ENDROOT
TORSDOF 0
REMARK  Name = ../refined-set-2016/3oim/3oim_pocket.pdb
REMARK  163 active torsions:
REMARK  status: ('A' for Active; 'I' for Inactive)
REMARK    1  A    between atoms: _1  and  _3
REMARK    2  A    between atoms: _3  and  _4
REMARK    3  A    between atoms: _3  and  _6
REMARK    4  A    between atoms: _6  and  _7
REMARK    5  A    between atoms: _17  and  _19
REMARK    6  A    between atoms: _19  and  _20
REMARK    7  A    between atoms: _19  and  _22
REMARK    8  A    between atoms: _22  and  _23
REMARK    9  A    between atoms: _28  and  _29
REMARK   10  A    between atoms: _31  and  _33
REMARK   11  A    between atoms: _33  and  _34
REMARK   12  A    between atoms: _33  and  _36
REMARK   13  A    between atoms: _36  and  _37
REMARK   14  A    between atoms: _43  and  _45
REMARK   15  A    between atoms: _45  and  _46
REMARK   16  A    between atoms: _45  and  _48
REMARK   17  A    between atoms: _48  and  _49
REMARK   18  A    between atoms: _52  and  _53
REMARK   19  A    between atoms: _58  and  _60
REMARK   20  A    between atoms: _60  and  _61
REMARK   21  A    between atoms: _60  and  _63
REMARK   22  A    between atoms: _63  and  _64
REMARK   23  A    between atoms: _69  and  _71
REMARK   24  A    between atoms: _71  and  _72
REMARK   25  A    between atoms: _71  and  _74
REMARK   26  A    between atoms: _74  and  _75
REMARK   27  A    between atoms: _80  and  _82
REMARK   28  A    between atoms: _82  and  _83
REMARK   29  A    between atoms: _86  and  _88
REMARK   30  A    between atoms: _88  and  _89
REMARK   31  A    between atoms: _88  and  _91
REMARK   32  A    between atoms: _91  and  _92
REMARK   33  A    between atoms: _97  and  _99
REMARK   34  A    between atoms: _99  and  _100
REMARK   35  A    between atoms: _99  and  _102
REMARK   36  A    between atoms: _102  and  _103
REMARK   37  A    between atoms: _106  and  _108
REMARK   38  A    between atoms: _108  and  _109
REMARK   39  A    between atoms: _108  and  _111
REMARK   40  A    between atoms: _111  and  _112
REMARK   41  A    between atoms: _112  and  _113
REMARK   42  A    between atoms: _118  and  _120
REMARK   43  A    between atoms: _120  and  _121
REMARK   44  A    between atoms: _120  and  _123
REMARK   45  A    between atoms: _123  and  _124
REMARK   46  A    between atoms: _130  and  _132
REMARK   47  A    between atoms: _143  and  _146
REMARK   48  A    between atoms: _146  and  _147
REMARK   49  A    between atoms: _155  and  _156
REMARK   50  A    between atoms: _164  and  _166
REMARK   51  A    between atoms: _166  and  _167
REMARK   52  A    between atoms: _166  and  _169
REMARK   53  A    between atoms: _169  and  _170
REMARK   54  A    between atoms: _170  and  _171
REMARK   55  A    between atoms: _174  and  _176
REMARK   56  A    between atoms: _176  and  _177
REMARK   57  A    between atoms: _176  and  _179
REMARK   58  A    between atoms: _179  and  _180
REMARK   59  A    between atoms: _185  and  _187
REMARK   60  A    between atoms: _187  and  _188
REMARK   61  A    between atoms: _187  and  _190
REMARK   62  A    between atoms: _190  and  _191
REMARK   63  A    between atoms: _191  and  _192
REMARK   64  A    between atoms: _195  and  _197
REMARK   65  A    between atoms: _197  and  _198
REMARK   66  A    between atoms: _197  and  _200
REMARK   67  A    between atoms: _200  and  _201
REMARK   68  A    between atoms: _204  and  _206
REMARK   69  A    between atoms: _206  and  _207
REMARK   70  A    between atoms: _206  and  _209
REMARK   71  A    between atoms: _209  and  _210
REMARK   72  A    between atoms: _211  and  ZN_451
REMARK   73  A    between atoms: _215  and  _217
REMARK   74  A    between atoms: _217  and  _218
REMARK   75  A    between atoms: _217  and  _220
REMARK   76  A    between atoms: _220  and  _221
REMARK   77  A    between atoms: _224  and  _226
REMARK   78  A    between atoms: _226  and  _227
REMARK   79  A    between atoms: _226  and  _229
REMARK   80  A    between atoms: _232  and  _234
REMARK   81  A    between atoms: _234  and  _235
REMARK   82  A    between atoms: _234  and  _237
REMARK   83  A    between atoms: _237  and  _238
REMARK   84  A    between atoms: _243  and  _245
REMARK   85  A    between atoms: _245  and  _246
REMARK   86  A    between atoms: _245  and  _248
REMARK   87  A    between atoms: _248  and  _249
REMARK   88  A    between atoms: _255  and  _257
REMARK   89  A    between atoms: _257  and  _258
REMARK   90  A    between atoms: _260  and  _262
REMARK   91  A    between atoms: _262  and  _263
REMARK   92  A    between atoms: _262  and  _265
REMARK   93  A    between atoms: _265  and  _266
REMARK   94  A    between atoms: _266  and  _267
REMARK   95  A    between atoms: _267  and  _268
REMARK   96  A    between atoms: _268  and  _269
REMARK   97  A    between atoms: _273  and  _275
REMARK   98  A    between atoms: _275  and  _276
REMARK   99  A    between atoms: _275  and  _278
REMARK  100  A    between atoms: _281  and  _283
REMARK  101  A    between atoms: _283  and  _284
REMARK  102  A    between atoms: _283  and  _286
REMARK  103  A    between atoms: _286  and  _287
REMARK  104  A    between atoms: _287  and  _288
REMARK  105  A    between atoms: _293  and  _295
REMARK  106  A    between atoms: _295  and  _296
REMARK  107  A    between atoms: _295  and  _298
REMARK  108  A    between atoms: _298  and  _299
REMARK  109  A    between atoms: _302  and  _304
REMARK  110  A    between atoms: _304  and  _305
REMARK  111  A    between atoms: _308  and  _310
REMARK  112  A    between atoms: _310  and  _311
REMARK  113  A    between atoms: _310  and  _313
REMARK  114  A    between atoms: _316  and  _318
REMARK  115  A    between atoms: _318  and  _319
REMARK  116  A    between atoms: _318  and  _321
REMARK  117  A    between atoms: _321  and  _322
REMARK  118  A    between atoms: _325  and  _327
REMARK  119  A    between atoms: _327  and  _328
REMARK  120  A    between atoms: _327  and  _330
REMARK  121  A    between atoms: _330  and  _331
REMARK  122  A    between atoms: _333  and  _335
REMARK  123  A    between atoms: _335  and  _336
REMARK  124  A    between atoms: _335  and  _338
REMARK  125  A    between atoms: _338  and  _339
REMARK  126  A    between atoms: _342  and  _344
REMARK  127  A    between atoms: _344  and  _345
REMARK  128  A    between atoms: _344  and  _347
REMARK  129  A    between atoms: _347  and  _348
REMARK  130  A    between atoms: _351  and  _353
REMARK  131  A    between atoms: _353  and  _354
REMARK  132  A    between atoms: _353  and  _356
REMARK  133  A    between atoms: _356  and  _357
REMARK  134  A    between atoms: _361  and  _362
REMARK  135  A    between atoms: _368  and  _369
REMARK  136  A    between atoms: _374  and  _376
REMARK  137  A    between atoms: _376  and  _377
REMARK  138  A    between atoms: _376  and  _379
REMARK  139  A    between atoms: _379  and  _380
REMARK  140  A    between atoms: _383  and  _385
REMARK  141  A    between atoms: _385  and  _386
REMARK  142  A    between atoms: _385  and  _388
REMARK  143  A    between atoms: _388  and  _389
REMARK  144  A    between atoms: _392  and  _394
REMARK  145  A    between atoms: _394  and  _395
REMARK  146  A    between atoms: _394  and  _397
REMARK  147  A    between atoms: _399  and  _401
REMARK  148  A    between atoms: _401  and  _402
REMARK  149  A    between atoms: _401  and  _404
REMARK  150  A    between atoms: _407  and  _409
REMARK  151  A    between atoms: _409  and  _410
REMARK  152  A    between atoms: _409  and  _412
REMARK  153  A    between atoms: _412  and  _413
REMARK  154  A    between atoms: _423  and  _425
REMARK  155  A    between atoms: _425  and  _426
REMARK  156  A    between atoms: _425  and  _428
REMARK  157  A    between atoms: _428  and  _429
REMARK  158  A    between atoms: _434  and  _436
REMARK  159  A    between atoms: _436  and  _437
REMARK  160  A    between atoms: _436  and  _439
REMARK  161  A    between atoms: _439  and  _440
REMARK  162  A    between atoms: _440  and  _441
REMARK  163  A    between atoms: _441  and  _442
REMARK                            x       y       z     vdW  Elec       q    Type
REMARK                         _______ _______ _______ _____ _____    ______ ____
ROOT
ATOM      1  O   HOH     1      -2.352  12.358  12.821  0.00  0.00    +0.000 OA
ENDROOT
TORSDOF 0
REMARK  Name = ../refined-set-2016/3oim/3oim_pocket.pdb
REMARK  163 active torsions:
REMARK  status: ('A' for Active; 'I' for Inactive)
REMARK    1  A    between atoms: _1  and  _3
REMARK    2  A    between atoms: _3  and  _4
REMARK    3  A    between atoms: _3  and  _6
REMARK    4  A    between atoms: _6  and  _7
REMARK    5  A    between atoms: _17  and  _19
REMARK    6  A    between atoms: _19  and  _20
REMARK    7  A    between atoms: _19  and  _22
REMARK    8  A    between atoms: _22  and  _23
REMARK    9  A    between atoms: _28  and  _29
REMARK   10  A    between atoms: _31  and  _33
REMARK   11  A    between atoms: _33  and  _34
REMARK   12  A    between atoms: _33  and  _36
REMARK   13  A    between atoms: _36  and  _37
REMARK   14  A    between atoms: _43  and  _45
REMARK   15  A    between atoms: _45  and  _46
REMARK   16  A    between atoms: _45  and  _48
REMARK   17  A    between atoms: _48  and  _49
REMARK   18  A    between atoms: _52  and  _53
REMARK   19  A    between atoms: _58  and  _60
REMARK   20  A    between atoms: _60  and  _61
REMARK   21  A    between atoms: _60  and  _63
REMARK   22  A    between atoms: _63  and  _64
REMARK   23  A    between atoms: _69  and  _71
REMARK   24  A    between atoms: _71  and  _72
REMARK   25  A    between atoms: _71  and  _74
REMARK   26  A    between atoms: _74  and  _75
REMARK   27  A    between atoms: _80  and  _82
REMARK   28  A    between atoms: _82  and  _83
REMARK   29  A    between atoms: _86  and  _88
REMARK   30  A    between atoms: _88  and  _89
REMARK   31  A    between atoms: _88  and  _91
REMARK   32  A    between atoms: _91  and  _92
REMARK   33  A    between atoms: _97  and  _99
REMARK   34  A    between atoms: _99  and  _100
REMARK   35  A    between atoms: _99  and  _102
REMARK   36  A    between atoms: _102  and  _103
REMARK   37  A    between atoms: _106  and  _108
REMARK   38  A    between atoms: _108  and  _109
REMARK   39  A    between atoms: _108  and  _111
REMARK   40  A    between atoms: _111  and  _112
REMARK   41  A    between atoms: _112  and  _113
REMARK   42  A    between atoms: _118  and  _120
REMARK   43  A    between atoms: _120  and  _121
REMARK   44  A    between atoms: _120  and  _123
REMARK   45  A    between atoms: _123  and  _124
REMARK   46  A    between atoms: _130  and  _132
REMARK   47  A    between atoms: _143  and  _146
REMARK   48  A    between atoms: _146  and  _147
REMARK   49  A    between atoms: _155  and  _156
REMARK   50  A    between atoms: _164  and  _166
REMARK   51  A    between atoms: _166  and  _167
REMARK   52  A    between atoms: _166  and  _169
REMARK   53  A    between atoms: _169  and  _170
REMARK   54  A    between atoms: _170  and  _171
REMARK   55  A    between atoms: _174  and  _176
REMARK   56  A    between atoms: _176  and  _177
REMARK   57  A    between atoms: _176  and  _179
REMARK   58  A    between atoms: _179  and  _180
REMARK   59  A    between atoms: _185  and  _187
REMARK   60  A    between atoms: _187  and  _188
REMARK   61  A    between atoms: _187  and  _190
REMARK   62  A    between atoms: _190  and  _191
REMARK   63  A    between atoms: _191  and  _192
REMARK   64  A    between atoms: _195  and  _197
REMARK   65  A    between atoms: _197  and  _198
REMARK   66  A    between atoms: _197  and  _200
REMARK   67  A    between atoms: _200  and  _201
REMARK   68  A    between atoms: _204  and  _206
REMARK   69  A    between atoms: _206  and  _207
REMARK   70  A    between atoms: _206  and  _209
REMARK   71  A    between atoms: _209  and  _210
REMARK   72  A    between atoms: _211  and  ZN_451
REMARK   73  A    between atoms: _215  and  _217
REMARK   74  A    between atoms: _217  and  _218
REMARK   75  A    between atoms: _217  and  _220
REMARK   76  A    between atoms: _220  and  _221
REMARK   77  A    between atoms: _224  and  _226
REMARK   78  A    between atoms: _226  and  _227
REMARK   79  A    between atoms: _226  and  _229
REMARK   80  A    between atoms: _232  and  _234
REMARK   81  A    between atoms: _234  and  _235
REMARK   82  A    between atoms: _234  and  _237
REMARK   83  A    between atoms: _237  and  _238
REMARK   84  A    between atoms: _243  and  _245
REMARK   85  A    between atoms: _245  and  _246
REMARK   86  A    between atoms: _245  and  _248
REMARK   87  A    between atoms: _248  and  _249
REMARK   88  A    between atoms: _255  and  _257
REMARK   89  A    between atoms: _257  and  _258
REMARK   90  A    between atoms: _260  and  _262
REMARK   91  A    between atoms: _262  and  _263
REMARK   92  A    between atoms: _262  and  _265
REMARK   93  A    between atoms: _265  and  _266
REMARK   94  A    between atoms: _266  and  _267
REMARK   95  A    between atoms: _267  and  _268
REMARK   96  A    between atoms: _268  and  _269
REMARK   97  A    between atoms: _273  and  _275
REMARK   98  A    between atoms: _275  and  _276
REMARK   99  A    between atoms: _275  and  _278
REMARK  100  A    between atoms: _281  and  _283
REMARK  101  A    between atoms: _283  and  _284
REMARK  102  A    between atoms: _283  and  _286
REMARK  103  A    between atoms: _286  and  _287
REMARK  104  A    between atoms: _287  and  _288
REMARK  105  A    between atoms: _293  and  _295
REMARK  106  A    between atoms: _295  and  _296
REMARK  107  A    between atoms: _295  and  _298
REMARK  108  A    between atoms: _298  and  _299
REMARK  109  A    between atoms: _302  and  _304
REMARK  110  A    between atoms: _304  and  _305
REMARK  111  A    between atoms: _308  and  _310
REMARK  112  A    between atoms: _310  and  _311
REMARK  113  A    between atoms: _310  and  _313
REMARK  114  A    between atoms: _316  and  _318
REMARK  115  A    between atoms: _318  and  _319
REMARK  116  A    between atoms: _318  and  _321
REMARK  117  A    between atoms: _321  and  _322
REMARK  118  A    between atoms: _325  and  _327
REMARK  119  A    between atoms: _327  and  _328
REMARK  120  A    between atoms: _327  and  _330
REMARK  121  A    between atoms: _330  and  _331
REMARK  122  A    between atoms: _333  and  _335
REMARK  123  A    between atoms: _335  and  _336
REMARK  124  A    between atoms: _335  and  _338
REMARK  125  A    between atoms: _338  and  _339
REMARK  126  A    between atoms: _342  and  _344
REMARK  127  A    between atoms: _344  and  _345
REMARK  128  A    between atoms: _344  and  _347
REMARK  129  A    between atoms: _347  and  _348
REMARK  130  A    between atoms: _351  and  _353
REMARK  131  A    between atoms: _353  and  _354
REMARK  132  A    between atoms: _353  and  _356
REMARK  133  A    between atoms: _356  and  _357
REMARK  134  A    between atoms: _361  and  _362
REMARK  135  A    between atoms: _368  and  _369
REMARK  136  A    between atoms: _374  and  _376
REMARK  137  A    between atoms: _376  and  _377
REMARK  138  A    between atoms: _376  and  _379
REMARK  139  A    between atoms: _379  and  _380
REMARK  140  A    between atoms: _383  and  _385
REMARK  141  A    between atoms: _385  and  _386
REMARK  142  A    between atoms: _385  and  _388
REMARK  143  A    between atoms: _388  and  _389
REMARK  144  A    between atoms: _392  and  _394
REMARK  145  A    between atoms: _394  and  _395
REMARK  146  A    between atoms: _394  and  _397
REMARK  147  A    between atoms: _399  and  _401
REMARK  148  A    between atoms: _401  and  _402
REMARK  149  A    between atoms: _401  and  _404
REMARK  150  A    between atoms: _407  and  _409
REMARK  151  A    between atoms: _409  and  _410
REMARK  152  A    between atoms: _409  and  _412
REMARK  153  A    between atoms: _412  and  _413
REMARK  154  A    between atoms: _423  and  _425
REMARK  155  A    between atoms: _425  and  _426
REMARK  156  A    between atoms: _425  and  _428
REMARK  157  A    between atoms: _428  and  _429
REMARK  158  A    between atoms: _434  and  _436
REMARK  159  A    between atoms: _436  and  _437
REMARK  160  A    between atoms: _436  and  _439
REMARK  161  A    between atoms: _439  and  _440
REMARK  162  A    between atoms: _440  and  _441
REMARK  163  A    between atoms: _441  and  _442
REMARK                            x       y       z     vdW  Elec       q    Type
REMARK                         _______ _______ _______ _____ _____    ______ ____
ROOT
ATOM      1  O   HOH     1      -3.934   4.693   6.943  0.00  0.00    +0.000 OA
ENDROOT
TORSDOF 0
REMARK  Name = ../refined-set-2016/3oim/3oim_pocket.pdb
REMARK  163 active torsions:
REMARK  status: ('A' for Active; 'I' for Inactive)
REMARK    1  A    between atoms: _1  and  _3
REMARK    2  A    between atoms: _3  and  _4
REMARK    3  A    between atoms: _3  and  _6
REMARK    4  A    between atoms: _6  and  _7
REMARK    5  A    between atoms: _17  and  _19
REMARK    6  A    between atoms: _19  and  _20
REMARK    7  A    between atoms: _19  and  _22
REMARK    8  A    between atoms: _22  and  _23
REMARK    9  A    between atoms: _28  and  _29
REMARK   10  A    between atoms: _31  and  _33
REMARK   11  A    between atoms: _33  and  _34
REMARK   12  A    between atoms: _33  and  _36
REMARK   13  A    between atoms: _36  and  _37
REMARK   14  A    between atoms: _43  and  _45
REMARK   15  A    between atoms: _45  and  _46
REMARK   16  A    between atoms: _45  and  _48
REMARK   17  A    between atoms: _48  and  _49
REMARK   18  A    between atoms: _52  and  _53
REMARK   19  A    between atoms: _58  and  _60
REMARK   20  A    between atoms: _60  and  _61
REMARK   21  A    between atoms: _60  and  _63
REMARK   22  A    between atoms: _63  and  _64
REMARK   23  A    between atoms: _69  and  _71
REMARK   24  A    between atoms: _71  and  _72
REMARK   25  A    between atoms: _71  and  _74
REMARK   26  A    between atoms: _74  and  _75
REMARK   27  A    between atoms: _80  and  _82
REMARK   28  A    between atoms: _82  and  _83
REMARK   29  A    between atoms: _86  and  _88
REMARK   30  A    between atoms: _88  and  _89
REMARK   31  A    between atoms: _88  and  _91
REMARK   32  A    between atoms: _91  and  _92
REMARK   33  A    between atoms: _97  and  _99
REMARK   34  A    between atoms: _99  and  _100
REMARK   35  A    between atoms: _99  and  _102
REMARK   36  A    between atoms: _102  and  _103
REMARK   37  A    between atoms: _106  and  _108
REMARK   38  A    between atoms: _108  and  _109
REMARK   39  A    between atoms: _108  and  _111
REMARK   40  A    between atoms: _111  and  _112
REMARK   41  A    between atoms: _112  and  _113
REMARK   42  A    between atoms: _118  and  _120
REMARK   43  A    between atoms: _120  and  _121
REMARK   44  A    between atoms: _120  and  _123
REMARK   45  A    between atoms: _123  and  _124
REMARK   46  A    between atoms: _130  and  _132
REMARK   47  A    between atoms: _143  and  _146
REMARK   48  A    between atoms: _146  and  _147
REMARK   49  A    between atoms: _155  and  _156
REMARK   50  A    between atoms: _164  and  _166
REMARK   51  A    between atoms: _166  and  _167
REMARK   52  A    between atoms: _166  and  _169
REMARK   53  A    between atoms: _169  and  _170
REMARK   54  A    between atoms: _170  and  _171
REMARK   55  A    between atoms: _174  and  _176
REMARK   56  A    between atoms: _176  and  _177
REMARK   57  A    between atoms: _176  and  _179
REMARK   58  A    between atoms: _179  and  _180
REMARK   59  A    between atoms: _185  and  _187
REMARK   60  A    between atoms: _187  and  _188
REMARK   61  A    between atoms: _187  and  _190
REMARK   62  A    between atoms: _190  and  _191
REMARK   63  A    between atoms: _191  and  _192
REMARK   64  A    between atoms: _195  and  _197
REMARK   65  A    between atoms: _197  and  _198
REMARK   66  A    between atoms: _197  and  _200
REMARK   67  A    between atoms: _200  and  _201
REMARK   68  A    between atoms: _204  and  _206
REMARK   69  A    between atoms: _206  and  _207
REMARK   70  A    between atoms: _206  and  _209
REMARK   71  A    between atoms: _209  and  _210
REMARK   72  A    between atoms: _211  and  ZN_451
REMARK   73  A    between atoms: _215  and  _217
REMARK   74  A    between atoms: _217  and  _218
REMARK   75  A    between atoms: _217  and  _220
REMARK   76  A    between atoms: _220  and  _221
REMARK   77  A    between atoms: _224  and  _226
REMARK   78  A    between atoms: _226  and  _227
REMARK   79  A    between atoms: _226  and  _229
REMARK   80  A    between atoms: _232  and  _234
REMARK   81  A    between atoms: _234  and  _235
REMARK   82  A    between atoms: _234  and  _237
REMARK   83  A    between atoms: _237  and  _238
REMARK   84  A    between atoms: _243  and  _245
REMARK   85  A    between atoms: _245  and  _246
REMARK   86  A    between atoms: _245  and  _248
REMARK   87  A    between atoms: _248  and  _249
REMARK   88  A    between atoms: _255  and  _257
REMARK   89  A    between atoms: _257  and  _258
REMARK   90  A    between atoms: _260  and  _262
REMARK   91  A    between atoms: _262  and  _263
REMARK   92  A    between atoms: _262  and  _265
REMARK   93  A    between atoms: _265  and  _266
REMARK   94  A    between atoms: _266  and  _267
REMARK   95  A    between atoms: _267  and  _268
REMARK   96  A    between atoms: _268  and  _269
REMARK   97  A    between atoms: _273  and  _275
REMARK   98  A    between atoms: _275  and  _276
REMARK   99  A    between atoms: _275  and  _278
REMARK  100  A    between atoms: _281  and  _283
REMARK  101  A    between atoms: _283  and  _284
REMARK  102  A    between atoms: _283  and  _286
REMARK  103  A    between atoms: _286  and  _287
REMARK  104  A    between atoms: _287  and  _288
REMARK  105  A    between atoms: _293  and  _295
REMARK  106  A    between atoms: _295  and  _296
REMARK  107  A    between atoms: _295  and  _298
REMARK  108  A    between atoms: _298  and  _299
REMARK  109  A    between atoms: _302  and  _304
REMARK  110  A    between atoms: _304  and  _305
REMARK  111  A    between atoms: _308  and  _310
REMARK  112  A    between atoms: _310  and  _311
REMARK  113  A    between atoms: _310  and  _313
REMARK  114  A    between atoms: _316  and  _318
REMARK  115  A    between atoms: _318  and  _319
REMARK  116  A    between atoms: _318  and  _321
REMARK  117  A    between atoms: _321  and  _322
REMARK  118  A    between atoms: _325  and  _327
REMARK  119  A    between atoms: _327  and  _328
REMARK  120  A    between atoms: _327  and  _330
REMARK  121  A    between atoms: _330  and  _331
REMARK  122  A    between atoms: _333  and  _335
REMARK  123  A    between atoms: _335  and  _336
REMARK  124  A    between atoms: _335  and  _338
REMARK  125  A    between atoms: _338  and  _339
REMARK  126  A    between atoms: _342  and  _344
REMARK  127  A    between atoms: _344  and  _345
REMARK  128  A    between atoms: _344  and  _347
REMARK  129  A    between atoms: _347  and  _348
REMARK  130  A    between atoms: _351  and  _353
REMARK  131  A    between atoms: _353  and  _354
REMARK  132  A    between atoms: _353  and  _356
REMARK  133  A    between atoms: _356  and  _357
REMARK  134  A    between atoms: _361  and  _362
REMARK  135  A    between atoms: _368  and  _369
REMARK  136  A    between atoms: _374  and  _376
REMARK  137  A    between atoms: _376  and  _377
REMARK  138  A    between atoms: _376  and  _379
REMARK  139  A    between atoms: _379  and  _380
REMARK  140  A    between atoms: _383  and  _385
REMARK  141  A    between atoms: _385  and  _386
REMARK  142  A    between atoms: _385  and  _388
REMARK  143  A    between atoms: _388  and  _389
REMARK  144  A    between atoms: _392  and  _394
REMARK  145  A    between atoms: _394  and  _395
REMARK  146  A    between atoms: _394  and  _397
REMARK  147  A    between atoms: _399  and  _401
REMARK  148  A    between atoms: _401  and  _402
REMARK  149  A    between atoms: _401  and  _404
REMARK  150  A    between atoms: _407  and  _409
REMARK  151  A    between atoms: _409  and  _410
REMARK  152  A    between atoms: _409  and  _412
REMARK  153  A    between atoms: _412  and  _413
REMARK  154  A    between atoms: _423  and  _425
REMARK  155  A    between atoms: _425  and  _426
REMARK  156  A    between atoms: _425  and  _428
REMARK  157  A    between atoms: _428  and  _429
REMARK  158  A    between atoms: _434  and  _436
REMARK  159  A    between atoms: _436  and  _437
REMARK  160  A    between atoms: _436  and  _439
REMARK  161  A    between atoms: _439  and  _440
REMARK  162  A    between atoms: _440  and  _441
REMARK  163  A    between atoms: _441  and  _442
REMARK                            x       y       z     vdW  Elec       q    Type
REMARK                         _______ _______ _______ _____ _____    ______ ____
ROOT
ATOM      1  O   HOH     1       6.238   8.817  18.702  0.00  0.00    +0.000 OA
ENDROOT
TORSDOF 0
REMARK  Name = ../refined-set-2016/3oim/3oim_pocket.pdb
REMARK  163 active torsions:
REMARK  status: ('A' for Active; 'I' for Inactive)
REMARK    1  A    between atoms: _1  and  _3
REMARK    2  A    between atoms: _3  and  _4
REMARK    3  A    between atoms: _3  and  _6
REMARK    4  A    between atoms: _6  and  _7
REMARK    5  A    between atoms: _17  and  _19
REMARK    6  A    between atoms: _19  and  _20
REMARK    7  A    between atoms: _19  and  _22
REMARK    8  A    between atoms: _22  and  _23
REMARK    9  A    between atoms: _28  and  _29
REMARK   10  A    between atoms: _31  and  _33
REMARK   11  A    between atoms: _33  and  _34
REMARK   12  A    between atoms: _33  and  _36
REMARK   13  A    between atoms: _36  and  _37
REMARK   14  A    between atoms: _43  and  _45
REMARK   15  A    between atoms: _45  and  _46
REMARK   16  A    between atoms: _45  and  _48
REMARK   17  A    between atoms: _48  and  _49
REMARK   18  A    between atoms: _52  and  _53
REMARK   19  A    between atoms: _58  and  _60
REMARK   20  A    between atoms: _60  and  _61
REMARK   21  A    between atoms: _60  and  _63
REMARK   22  A    between atoms: _63  and  _64
REMARK   23  A    between atoms: _69  and  _71
REMARK   24  A    between atoms: _71  and  _72
REMARK   25  A    between atoms: _71  and  _74
REMARK   26  A    between atoms: _74  and  _75
REMARK   27  A    between atoms: _80  and  _82
REMARK   28  A    between atoms: _82  and  _83
REMARK   29  A    between atoms: _86  and  _88
REMARK   30  A    between atoms: _88  and  _89
REMARK   31  A    between atoms: _88  and  _91
REMARK   32  A    between atoms: _91  and  _92
REMARK   33  A    between atoms: _97  and  _99
REMARK   34  A    between atoms: _99  and  _100
REMARK   35  A    between atoms: _99  and  _102
REMARK   36  A    between atoms: _102  and  _103
REMARK   37  A    between atoms: _106  and  _108
REMARK   38  A    between atoms: _108  and  _109
REMARK   39  A    between atoms: _108  and  _111
REMARK   40  A    between atoms: _111  and  _112
REMARK   41  A    between atoms: _112  and  _113
REMARK   42  A    between atoms: _118  and  _120
REMARK   43  A    between atoms: _120  and  _121
REMARK   44  A    between atoms: _120  and  _123
REMARK   45  A    between atoms: _123  and  _124
REMARK   46  A    between atoms: _130  and  _132
REMARK   47  A    between atoms: _143  and  _146
REMARK   48  A    between atoms: _146  and  _147
REMARK   49  A    between atoms: _155  and  _156
REMARK   50  A    between atoms: _164  and  _166
REMARK   51  A    between atoms: _166  and  _167
REMARK   52  A    between atoms: _166  and  _169
REMARK   53  A    between atoms: _169  and  _170
REMARK   54  A    between atoms: _170  and  _171
REMARK   55  A    between atoms: _174  and  _176
REMARK   56  A    between atoms: _176  and  _177
REMARK   57  A    between atoms: _176  and  _179
REMARK   58  A    between atoms: _179  and  _180
REMARK   59  A    between atoms: _185  and  _187
REMARK   60  A    between atoms: _187  and  _188
REMARK   61  A    between atoms: _187  and  _190
REMARK   62  A    between atoms: _190  and  _191
REMARK   63  A    between atoms: _191  and  _192
REMARK   64  A    between atoms: _195  and  _197
REMARK   65  A    between atoms: _197  and  _198
REMARK   66  A    between atoms: _197  and  _200
REMARK   67  A    between atoms: _200  and  _201
REMARK   68  A    between atoms: _204  and  _206
REMARK   69  A    between atoms: _206  and  _207
REMARK   70  A    between atoms: _206  and  _209
REMARK   71  A    between atoms: _209  and  _210
REMARK   72  A    between atoms: _211  and  ZN_451
REMARK   73  A    between atoms: _215  and  _217
REMARK   74  A    between atoms: _217  and  _218
REMARK   75  A    between atoms: _217  and  _220
REMARK   76  A    between atoms: _220  and  _221
REMARK   77  A    between atoms: _224  and  _226
REMARK   78  A    between atoms: _226  and  _227
REMARK   79  A    between atoms: _226  and  _229
REMARK   80  A    between atoms: _232  and  _234
REMARK   81  A    between atoms: _234  and  _235
REMARK   82  A    between atoms: _234  and  _237
REMARK   83  A    between atoms: _237  and  _238
REMARK   84  A    between atoms: _243  and  _245
REMARK   85  A    between atoms: _245  and  _246
REMARK   86  A    between atoms: _245  and  _248
REMARK   87  A    between atoms: _248  and  _249
REMARK   88  A    between atoms: _255  and  _257
REMARK   89  A    between atoms: _257  and  _258
REMARK   90  A    between atoms: _260  and  _262
REMARK   91  A    between atoms: _262  and  _263
REMARK   92  A    between atoms: _262  and  _265
REMARK   93  A    between atoms: _265  and  _266
REMARK   94  A    between atoms: _266  and  _267
REMARK   95  A    between atoms: _267  and  _268
REMARK   96  A    between atoms: _268  and  _269
REMARK   97  A    between atoms: _273  and  _275
REMARK   98  A    between atoms: _275  and  _276
REMARK   99  A    between atoms: _275  and  _278
REMARK  100  A    between atoms: _281  and  _283
REMARK  101  A    between atoms: _283  and  _284
REMARK  102  A    between atoms: _283  and  _286
REMARK  103  A    between atoms: _286  and  _287
REMARK  104  A    between atoms: _287  and  _288
REMARK  105  A    between atoms: _293  and  _295
REMARK  106  A    between atoms: _295  and  _296
REMARK  107  A    between atoms: _295  and  _298
REMARK  108  A    between atoms: _298  and  _299
REMARK  109  A    between atoms: _302  and  _304
REMARK  110  A    between atoms: _304  and  _305
REMARK  111  A    between atoms: _308  and  _310
REMARK  112  A    between atoms: _310  and  _311
REMARK  113  A    between atoms: _310  and  _313
REMARK  114  A    between atoms: _316  and  _318
REMARK  115  A    between atoms: _318  and  _319
REMARK  116  A    between atoms: _318  and  _321
REMARK  117  A    between atoms: _321  and  _322
REMARK  118  A    between atoms: _325  and  _327
REMARK  119  A    between atoms: _327  and  _328
REMARK  120  A    between atoms: _327  and  _330
REMARK  121  A    between atoms: _330  and  _331
REMARK  122  A    between atoms: _333  and  _335
REMARK  123  A    between atoms: _335  and  _336
REMARK  124  A    between atoms: _335  and  _338
REMARK  125  A    between atoms: _338  and  _339
REMARK  126  A    between atoms: _342  and  _344
REMARK  127  A    between atoms: _344  and  _345
REMARK  128  A    between atoms: _344  and  _347
REMARK  129  A    between atoms: _347  and  _348
REMARK  130  A    between atoms: _351  and  _353
REMARK  131  A    between atoms: _353  and  _354
REMARK  132  A    between atoms: _353  and  _356
REMARK  133  A    between atoms: _356  and  _357
REMARK  134  A    between atoms: _361  and  _362
REMARK  135  A    between atoms: _368  and  _369
REMARK  136  A    between atoms: _374  and  _376
REMARK  137  A    between atoms: _376  and  _377
REMARK  138  A    between atoms: _376  and  _379
REMARK  139  A    between atoms: _379  and  _380
REMARK  140  A    between atoms: _383  and  _385
REMARK  141  A    between atoms: _385  and  _386
REMARK  142  A    between atoms: _385  and  _388
REMARK  143  A    between atoms: _388  and  _389
REMARK  144  A    between atoms: _392  and  _394
REMARK  145  A    between atoms: _394  and  _395
REMARK  146  A    between atoms: _394  and  _397
REMARK  147  A    between atoms: _399  and  _401
REMARK  148  A    between atoms: _401  and  _402
REMARK  149  A    between atoms: _401  and  _404
REMARK  150  A    between atoms: _407  and  _409
REMARK  151  A    between atoms: _409  and  _410
REMARK  152  A    between atoms: _409  and  _412
REMARK  153  A    between atoms: _412  and  _413
REMARK  154  A    between atoms: _423  and  _425
REMARK  155  A    between atoms: _425  and  _426
REMARK  156  A    between atoms: _425  and  _428
REMARK  157  A    between atoms: _428  and  _429
REMARK  158  A    between atoms: _434  and  _436
REMARK  159  A    between atoms: _436  and  _437
REMARK  160  A    between atoms: _436  and  _439
REMARK  161  A    between atoms: _439  and  _440
REMARK  162  A    between atoms: _440  and  _441
REMARK  163  A    between atoms: _441  and  _442
REMARK                            x       y       z     vdW  Elec       q    Type
REMARK                         _______ _______ _______ _____ _____    ______ ____
ROOT
ATOM      1  O   HOH     1       1.838   4.297   9.712  0.00  0.00    +0.000 OA
ENDROOT
TORSDOF 0
REMARK  Name = ../refined-set-2016/3oim/3oim_pocket.pdb
REMARK  163 active torsions:
REMARK  status: ('A' for Active; 'I' for Inactive)
REMARK    1  A    between atoms: _1  and  _3
REMARK    2  A    between atoms: _3  and  _4
REMARK    3  A    between atoms: _3  and  _6
REMARK    4  A    between atoms: _6  and  _7
REMARK    5  A    between atoms: _17  and  _19
REMARK    6  A    between atoms: _19  and  _20
REMARK    7  A    between atoms: _19  and  _22
REMARK    8  A    between atoms: _22  and  _23
REMARK    9  A    between atoms: _28  and  _29
REMARK   10  A    between atoms: _31  and  _33
REMARK   11  A    between atoms: _33  and  _34
REMARK   12  A    between atoms: _33  and  _36
REMARK   13  A    between atoms: _36  and  _37
REMARK   14  A    between atoms: _43  and  _45
REMARK   15  A    between atoms: _45  and  _46
REMARK   16  A    between atoms: _45  and  _48
REMARK   17  A    between atoms: _48  and  _49
REMARK   18  A    between atoms: _52  and  _53
REMARK   19  A    between atoms: _58  and  _60
REMARK   20  A    between atoms: _60  and  _61
REMARK   21  A    between atoms: _60  and  _63
REMARK   22  A    between atoms: _63  and  _64
REMARK   23  A    between atoms: _69  and  _71
REMARK   24  A    between atoms: _71  and  _72
REMARK   25  A    between atoms: _71  and  _74
REMARK   26  A    between atoms: _74  and  _75
REMARK   27  A    between atoms: _80  and  _82
REMARK   28  A    between atoms: _82  and  _83
REMARK   29  A    between atoms: _86  and  _88
REMARK   30  A    between atoms: _88  and  _89
REMARK   31  A    between atoms: _88  and  _91
REMARK   32  A    between atoms: _91  and  _92
REMARK   33  A    between atoms: _97  and  _99
REMARK   34  A    between atoms: _99  and  _100
REMARK   35  A    between atoms: _99  and  _102
REMARK   36  A    between atoms: _102  and  _103
REMARK   37  A    between atoms: _106  and  _108
REMARK   38  A    between atoms: _108  and  _109
REMARK   39  A    between atoms: _108  and  _111
REMARK   40  A    between atoms: _111  and  _112
REMARK   41  A    between atoms: _112  and  _113
REMARK   42  A    between atoms: _118  and  _120
REMARK   43  A    between atoms: _120  and  _121
REMARK   44  A    between atoms: _120  and  _123
REMARK   45  A    between atoms: _123  and  _124
REMARK   46  A    between atoms: _130  and  _132
REMARK   47  A    between atoms: _143  and  _146
REMARK   48  A    between atoms: _146  and  _147
REMARK   49  A    between atoms: _155  and  _156
REMARK   50  A    between atoms: _164  and  _166
REMARK   51  A    between atoms: _166  and  _167
REMARK   52  A    between atoms: _166  and  _169
REMARK   53  A    between atoms: _169  and  _170
REMARK   54  A    between atoms: _170  and  _171
REMARK   55  A    between atoms: _174  and  _176
REMARK   56  A    between atoms: _176  and  _177
REMARK   57  A    between atoms: _176  and  _179
REMARK   58  A    between atoms: _179  and  _180
REMARK   59  A    between atoms: _185  and  _187
REMARK   60  A    between atoms: _187  and  _188
REMARK   61  A    between atoms: _187  and  _190
REMARK   62  A    between atoms: _190  and  _191
REMARK   63  A    between atoms: _191  and  _192
REMARK   64  A    between atoms: _195  and  _197
REMARK   65  A    between atoms: _197  and  _198
REMARK   66  A    between atoms: _197  and  _200
REMARK   67  A    between atoms: _200  and  _201
REMARK   68  A    between atoms: _204  and  _206
REMARK   69  A    between atoms: _206  and  _207
REMARK   70  A    between atoms: _206  and  _209
REMARK   71  A    between atoms: _209  and  _210
REMARK   72  A    between atoms: _211  and  ZN_451
REMARK   73  A    between atoms: _215  and  _217
REMARK   74  A    between atoms: _217  and  _218
REMARK   75  A    between atoms: _217  and  _220
REMARK   76  A    between atoms: _220  and  _221
REMARK   77  A    between atoms: _224  and  _226
REMARK   78  A    between atoms: _226  and  _227
REMARK   79  A    between atoms: _226  and  _229
REMARK   80  A    between atoms: _232  and  _234
REMARK   81  A    between atoms: _234  and  _235
REMARK   82  A    between atoms: _234  and  _237
REMARK   83  A    between atoms: _237  and  _238
REMARK   84  A    between atoms: _243  and  _245
REMARK   85  A    between atoms: _245  and  _246
REMARK   86  A    between atoms: _245  and  _248
REMARK   87  A    between atoms: _248  and  _249
REMARK   88  A    between atoms: _255  and  _257
REMARK   89  A    between atoms: _257  and  _258
REMARK   90  A    between atoms: _260  and  _262
REMARK   91  A    between atoms: _262  and  _263
REMARK   92  A    between atoms: _262  and  _265
REMARK   93  A    between atoms: _265  and  _266
REMARK   94  A    between atoms: _266  and  _267
REMARK   95  A    between atoms: _267  and  _268
REMARK   96  A    between atoms: _268  and  _269
REMARK   97  A    between atoms: _273  and  _275
REMARK   98  A    between atoms: _275  and  _276
REMARK   99  A    between atoms: _275  and  _278
REMARK  100  A    between atoms: _281  and  _283
REMARK  101  A    between atoms: _283  and  _284
REMARK  102  A    between atoms: _283  and  _286
REMARK  103  A    between atoms: _286  and  _287
REMARK  104  A    between atoms: _287  and  _288
REMARK  105  A    between atoms: _293  and  _295
REMARK  106  A    between atoms: _295  and  _296
REMARK  107  A    between atoms: _295  and  _298
REMARK  108  A    between atoms: _298  and  _299
REMARK  109  A    between atoms: _302  and  _304
REMARK  110  A    between atoms: _304  and  _305
REMARK  111  A    between atoms: _308  and  _310
REMARK  112  A    between atoms: _310  and  _311
REMARK  113  A    between atoms: _310  and  _313
REMARK  114  A    between atoms: _316  and  _318
REMARK  115  A    between atoms: _318  and  _319
REMARK  116  A    between atoms: _318  and  _321
REMARK  117  A    between atoms: _321  and  _322
REMARK  118  A    between atoms: _325  and  _327
REMARK  119  A    between atoms: _327  and  _328
REMARK  120  A    between atoms: _327  and  _330
REMARK  121  A    between atoms: _330  and  _331
REMARK  122  A    between atoms: _333  and  _335
REMARK  123  A    between atoms: _335  and  _336
REMARK  124  A    between atoms: _335  and  _338
REMARK  125  A    between atoms: _338  and  _339
REMARK  126  A    between atoms: _342  and  _344
REMARK  127  A    between atoms: _344  and  _345
REMARK  128  A    between atoms: _344  and  _347
REMARK  129  A    between atoms: _347  and  _348
REMARK  130  A    between atoms: _351  and  _353
REMARK  131  A    between atoms: _353  and  _354
REMARK  132  A    between atoms: _353  and  _356
REMARK  133  A    between atoms: _356  and  _357
REMARK  134  A    between atoms: _361  and  _362
REMARK  135  A    between atoms: _368  and  _369
REMARK  136  A    between atoms: _374  and  _376
REMARK  137  A    between atoms: _376  and  _377
REMARK  138  A    between atoms: _376  and  _379
REMARK  139  A    between atoms: _379  and  _380
REMARK  140  A    between atoms: _383  and  _385
REMARK  141  A    between atoms: _385  and  _386
REMARK  142  A    between atoms: _385  and  _388
REMARK  143  A    between atoms: _388  and  _389
REMARK  144  A    between atoms: _392  and  _394
REMARK  145  A    between atoms: _394  and  _395
REMARK  146  A    between atoms: _394  and  _397
REMARK  147  A    between atoms: _399  and  _401
REMARK  148  A    between atoms: _401  and  _402
REMARK  149  A    between atoms: _401  and  _404
REMARK  150  A    between atoms: _407  and  _409
REMARK  151  A    between atoms: _409  and  _410
REMARK  152  A    between atoms: _409  and  _412
REMARK  153  A    between atoms: _412  and  _413
REMARK  154  A    between atoms: _423  and  _425
REMARK  155  A    between atoms: _425  and  _426
REMARK  156  A    between atoms: _425  and  _428
REMARK  157  A    between atoms: _428  and  _429
REMARK  158  A    between atoms: _434  and  _436
REMARK  159  A    between atoms: _436  and  _437
REMARK  160  A    between atoms: _436  and  _439
REMARK  161  A    between atoms: _439  and  _440
REMARK  162  A    between atoms: _440  and  _441
REMARK  163  A    between atoms: _441  and  _442
REMARK                            x       y       z     vdW  Elec       q    Type
REMARK                         _______ _______ _______ _____ _____    ______ ____
ROOT
ATOM      1  O   HOH     1      -2.934   4.760   9.528  0.00  0.00    +0.000 OA
ENDROOT
TORSDOF 0
REMARK  Name = ../refined-set-2016/3oim/3oim_pocket.pdb
REMARK  163 active torsions:
REMARK  status: ('A' for Active; 'I' for Inactive)
REMARK    1  A    between atoms: _1  and  _3
REMARK    2  A    between atoms: _3  and  _4
REMARK    3  A    between atoms: _3  and  _6
REMARK    4  A    between atoms: _6  and  _7
REMARK    5  A    between atoms: _17  and  _19
REMARK    6  A    between atoms: _19  and  _20
REMARK    7  A    between atoms: _19  and  _22
REMARK    8  A    between atoms: _22  and  _23
REMARK    9  A    between atoms: _28  and  _29
REMARK   10  A    between atoms: _31  and  _33
REMARK   11  A    between atoms: _33  and  _34
REMARK   12  A    between atoms: _33  and  _36
REMARK   13  A    between atoms: _36  and  _37
REMARK   14  A    between atoms: _43  and  _45
REMARK   15  A    between atoms: _45  and  _46
REMARK   16  A    between atoms: _45  and  _48
REMARK   17  A    between atoms: _48  and  _49
REMARK   18  A    between atoms: _52  and  _53
REMARK   19  A    between atoms: _58  and  _60
REMARK   20  A    between atoms: _60  and  _61
REMARK   21  A    between atoms: _60  and  _63
REMARK   22  A    between atoms: _63  and  _64
REMARK   23  A    between atoms: _69  and  _71
REMARK   24  A    between atoms: _71  and  _72
REMARK   25  A    between atoms: _71  and  _74
REMARK   26  A    between atoms: _74  and  _75
REMARK   27  A    between atoms: _80  and  _82
REMARK   28  A    between atoms: _82  and  _83
REMARK   29  A    between atoms: _86  and  _88
REMARK   30  A    between atoms: _88  and  _89
REMARK   31  A    between atoms: _88  and  _91
REMARK   32  A    between atoms: _91  and  _92
REMARK   33  A    between atoms: _97  and  _99
REMARK   34  A    between atoms: _99  and  _100
REMARK   35  A    between atoms: _99  and  _102
REMARK   36  A    between atoms: _102  and  _103
REMARK   37  A    between atoms: _106  and  _108
REMARK   38  A    between atoms: _108  and  _109
REMARK   39  A    between atoms: _108  and  _111
REMARK   40  A    between atoms: _111  and  _112
REMARK   41  A    between atoms: _112  and  _113
REMARK   42  A    between atoms: _118  and  _120
REMARK   43  A    between atoms: _120  and  _121
REMARK   44  A    between atoms: _120  and  _123
REMARK   45  A    between atoms: _123  and  _124
REMARK   46  A    between atoms: _130  and  _132
REMARK   47  A    between atoms: _143  and  _146
REMARK   48  A    between atoms: _146  and  _147
REMARK   49  A    between atoms: _155  and  _156
REMARK   50  A    between atoms: _164  and  _166
REMARK   51  A    between atoms: _166  and  _167
REMARK   52  A    between atoms: _166  and  _169
REMARK   53  A    between atoms: _169  and  _170
REMARK   54  A    between atoms: _170  and  _171
REMARK   55  A    between atoms: _174  and  _176
REMARK   56  A    between atoms: _176  and  _177
REMARK   57  A    between atoms: _176  and  _179
REMARK   58  A    between atoms: _179  and  _180
REMARK   59  A    between atoms: _185  and  _187
REMARK   60  A    between atoms: _187  and  _188
REMARK   61  A    between atoms: _187  and  _190
REMARK   62  A    between atoms: _190  and  _191
REMARK   63  A    between atoms: _191  and  _192
REMARK   64  A    between atoms: _195  and  _197
REMARK   65  A    between atoms: _197  and  _198
REMARK   66  A    between atoms: _197  and  _200
REMARK   67  A    between atoms: _200  and  _201
REMARK   68  A    between atoms: _204  and  _206
REMARK   69  A    between atoms: _206  and  _207
REMARK   70  A    between atoms: _206  and  _209
REMARK   71  A    between atoms: _209  and  _210
REMARK   72  A    between atoms: _211  and  ZN_451
REMARK   73  A    between atoms: _215  and  _217
REMARK   74  A    between atoms: _217  and  _218
REMARK   75  A    between atoms: _217  and  _220
REMARK   76  A    between atoms: _220  and  _221
REMARK   77  A    between atoms: _224  and  _226
REMARK   78  A    between atoms: _226  and  _227
REMARK   79  A    between atoms: _226  and  _229
REMARK   80  A    between atoms: _232  and  _234
REMARK   81  A    between atoms: _234  and  _235
REMARK   82  A    between atoms: _234  and  _237
REMARK   83  A    between atoms: _237  and  _238
REMARK   84  A    between atoms: _243  and  _245
REMARK   85  A    between atoms: _245  and  _246
REMARK   86  A    between atoms: _245  and  _248
REMARK   87  A    between atoms: _248  and  _249
REMARK   88  A    between atoms: _255  and  _257
REMARK   89  A    between atoms: _257  and  _258
REMARK   90  A    between atoms: _260  and  _262
REMARK   91  A    between atoms: _262  and  _263
REMARK   92  A    between atoms: _262  and  _265
REMARK   93  A    between atoms: _265  and  _266
REMARK   94  A    between atoms: _266  and  _267
REMARK   95  A    between atoms: _267  and  _268
REMARK   96  A    between atoms: _268  and  _269
REMARK   97  A    between atoms: _273  and  _275
REMARK   98  A    between atoms: _275  and  _276
REMARK   99  A    between atoms: _275  and  _278
REMARK  100  A    between atoms: _281  and  _283
REMARK  101  A    between atoms: _283  and  _284
REMARK  102  A    between atoms: _283  and  _286
REMARK  103  A    between atoms: _286  and  _287
REMARK  104  A    between atoms: _287  and  _288
REMARK  105  A    between atoms: _293  and  _295
REMARK  106  A    between atoms: _295  and  _296
REMARK  107  A    between atoms: _295  and  _298
REMARK  108  A    between atoms: _298  and  _299
REMARK  109  A    between atoms: _302  and  _304
REMARK  110  A    between atoms: _304  and  _305
REMARK  111  A    between atoms: _308  and  _310
REMARK  112  A    between atoms: _310  and  _311
REMARK  113  A    between atoms: _310  and  _313
REMARK  114  A    between atoms: _316  and  _318
REMARK  115  A    between atoms: _318  and  _319
REMARK  116  A    between atoms: _318  and  _321
REMARK  117  A    between atoms: _321  and  _322
REMARK  118  A    between atoms: _325  and  _327
REMARK  119  A    between atoms: _327  and  _328
REMARK  120  A    between atoms: _327  and  _330
REMARK  121  A    between atoms: _330  and  _331
REMARK  122  A    between atoms: _333  and  _335
REMARK  123  A    between atoms: _335  and  _336
REMARK  124  A    between atoms: _335  and  _338
REMARK  125  A    between atoms: _338  and  _339
REMARK  126  A    between atoms: _342  and  _344
REMARK  127  A    between atoms: _344  and  _345
REMARK  128  A    between atoms: _344  and  _347
REMARK  129  A    between atoms: _347  and  _348
REMARK  130  A    between atoms: _351  and  _353
REMARK  131  A    between atoms: _353  and  _354
REMARK  132  A    between atoms: _353  and  _356
REMARK  133  A    between atoms: _356  and  _357
REMARK  134  A    between atoms: _361  and  _362
REMARK  135  A    between atoms: _368  and  _369
REMARK  136  A    between atoms: _374  and  _376
REMARK  137  A    between atoms: _376  and  _377
REMARK  138  A    between atoms: _376  and  _379
REMARK  139  A    between atoms: _379  and  _380
REMARK  140  A    between atoms: _383  and  _385
REMARK  141  A    between atoms: _385  and  _386
REMARK  142  A    between atoms: _385  and  _388
REMARK  143  A    between atoms: _388  and  _389
REMARK  144  A    between atoms: _392  and  _394
REMARK  145  A    between atoms: _394  and  _395
REMARK  146  A    between atoms: _394  and  _397
REMARK  147  A    between atoms: _399  and  _401
REMARK  148  A    between atoms: _401  and  _402
REMARK  149  A    between atoms: _401  and  _404
REMARK  150  A    between atoms: _407  and  _409
REMARK  151  A    between atoms: _409  and  _410
REMARK  152  A    between atoms: _409  and  _412
REMARK  153  A    between atoms: _412  and  _413
REMARK  154  A    between atoms: _423  and  _425
REMARK  155  A    between atoms: _425  and  _426
REMARK  156  A    between atoms: _425  and  _428
REMARK  157  A    between atoms: _428  and  _429
REMARK  158  A    between atoms: _434  and  _436
REMARK  159  A    between atoms: _436  and  _437
REMARK  160  A    between atoms: _436  and  _439
REMARK  161  A    between atoms: _439  and  _440
REMARK  162  A    between atoms: _440  and  _441
REMARK  163  A    between atoms: _441  and  _442
REMARK                            x       y       z     vdW  Elec       q    Type
REMARK                         _______ _______ _______ _____ _____    ______ ____
ROOT
ATOM      1  O   HOH     1      -0.477  14.044  15.804  0.00  0.00    +0.000 OA
ENDROOT
TORSDOF 0
REMARK  Name = ../refined-set-2016/3oim/3oim_pocket.pdb
REMARK  163 active torsions:
REMARK  status: ('A' for Active; 'I' for Inactive)
REMARK    1  A    between atoms: _1  and  _3
REMARK    2  A    between atoms: _3  and  _4
REMARK    3  A    between atoms: _3  and  _6
REMARK    4  A    between atoms: _6  and  _7
REMARK    5  A    between atoms: _17  and  _19
REMARK    6  A    between atoms: _19  and  _20
REMARK    7  A    between atoms: _19  and  _22
REMARK    8  A    between atoms: _22  and  _23
REMARK    9  A    between atoms: _28  and  _29
REMARK   10  A    between atoms: _31  and  _33
REMARK   11  A    between atoms: _33  and  _34
REMARK   12  A    between atoms: _33  and  _36
REMARK   13  A    between atoms: _36  and  _37
REMARK   14  A    between atoms: _43  and  _45
REMARK   15  A    between atoms: _45  and  _46
REMARK   16  A    between atoms: _45  and  _48
REMARK   17  A    between atoms: _48  and  _49
REMARK   18  A    between atoms: _52  and  _53
REMARK   19  A    between atoms: _58  and  _60
REMARK   20  A    between atoms: _60  and  _61
REMARK   21  A    between atoms: _60  and  _63
REMARK   22  A    between atoms: _63  and  _64
REMARK   23  A    between atoms: _69  and  _71
REMARK   24  A    between atoms: _71  and  _72
REMARK   25  A    between atoms: _71  and  _74
REMARK   26  A    between atoms: _74  and  _75
REMARK   27  A    between atoms: _80  and  _82
REMARK   28  A    between atoms: _82  and  _83
REMARK   29  A    between atoms: _86  and  _88
REMARK   30  A    between atoms: _88  and  _89
REMARK   31  A    between atoms: _88  and  _91
REMARK   32  A    between atoms: _91  and  _92
REMARK   33  A    between atoms: _97  and  _99
REMARK   34  A    between atoms: _99  and  _100
REMARK   35  A    between atoms: _99  and  _102
REMARK   36  A    between atoms: _102  and  _103
REMARK   37  A    between atoms: _106  and  _108
REMARK   38  A    between atoms: _108  and  _109
REMARK   39  A    between atoms: _108  and  _111
REMARK   40  A    between atoms: _111  and  _112
REMARK   41  A    between atoms: _112  and  _113
REMARK   42  A    between atoms: _118  and  _120
REMARK   43  A    between atoms: _120  and  _121
REMARK   44  A    between atoms: _120  and  _123
REMARK   45  A    between atoms: _123  and  _124
REMARK   46  A    between atoms: _130  and  _132
REMARK   47  A    between atoms: _143  and  _146
REMARK   48  A    between atoms: _146  and  _147
REMARK   49  A    between atoms: _155  and  _156
REMARK   50  A    between atoms: _164  and  _166
REMARK   51  A    between atoms: _166  and  _167
REMARK   52  A    between atoms: _166  and  _169
REMARK   53  A    between atoms: _169  and  _170
REMARK   54  A    between atoms: _170  and  _171
REMARK   55  A    between atoms: _174  and  _176
REMARK   56  A    between atoms: _176  and  _177
REMARK   57  A    between atoms: _176  and  _179
REMARK   58  A    between atoms: _179  and  _180
REMARK   59  A    between atoms: _185  and  _187
REMARK   60  A    between atoms: _187  and  _188
REMARK   61  A    between atoms: _187  and  _190
REMARK   62  A    between atoms: _190  and  _191
REMARK   63  A    between atoms: _191  and  _192
REMARK   64  A    between atoms: _195  and  _197
REMARK   65  A    between atoms: _197  and  _198
REMARK   66  A    between atoms: _197  and  _200
REMARK   67  A    between atoms: _200  and  _201
REMARK   68  A    between atoms: _204  and  _206
REMARK   69  A    between atoms: _206  and  _207
REMARK   70  A    between atoms: _206  and  _209
REMARK   71  A    between atoms: _209  and  _210
REMARK   72  A    between atoms: _211  and  ZN_451
REMARK   73  A    between atoms: _215  and  _217
REMARK   74  A    between atoms: _217  and  _218
REMARK   75  A    between atoms: _217  and  _220
REMARK   76  A    between atoms: _220  and  _221
REMARK   77  A    between atoms: _224  and  _226
REMARK   78  A    between atoms: _226  and  _227
REMARK   79  A    between atoms: _226  and  _229
REMARK   80  A    between atoms: _232  and  _234
REMARK   81  A    between atoms: _234  and  _235
REMARK   82  A    between atoms: _234  and  _237
REMARK   83  A    between atoms: _237  and  _238
REMARK   84  A    between atoms: _243  and  _245
REMARK   85  A    between atoms: _245  and  _246
REMARK   86  A    between atoms: _245  and  _248
REMARK   87  A    between atoms: _248  and  _249
REMARK   88  A    between atoms: _255  and  _257
REMARK   89  A    between atoms: _257  and  _258
REMARK   90  A    between atoms: _260  and  _262
REMARK   91  A    between atoms: _262  and  _263
REMARK   92  A    between atoms: _262  and  _265
REMARK   93  A    between atoms: _265  and  _266
REMARK   94  A    between atoms: _266  and  _267
REMARK   95  A    between atoms: _267  and  _268
REMARK   96  A    between atoms: _268  and  _269
REMARK   97  A    between atoms: _273  and  _275
REMARK   98  A    between atoms: _275  and  _276
REMARK   99  A    between atoms: _275  and  _278
REMARK  100  A    between atoms: _281  and  _283
REMARK  101  A    between atoms: _283  and  _284
REMARK  102  A    between atoms: _283  and  _286
REMARK  103  A    between atoms: _286  and  _287
REMARK  104  A    between atoms: _287  and  _288
REMARK  105  A    between atoms: _293  and  _295
REMARK  106  A    between atoms: _295  and  _296
REMARK  107  A    between atoms: _295  and  _298
REMARK  108  A    between atoms: _298  and  _299
REMARK  109  A    between atoms: _302  and  _304
REMARK  110  A    between atoms: _304  and  _305
REMARK  111  A    between atoms: _308  and  _310
REMARK  112  A    between atoms: _310  and  _311
REMARK  113  A    between atoms: _310  and  _313
REMARK  114  A    between atoms: _316  and  _318
REMARK  115  A    between atoms: _318  and  _319
REMARK  116  A    between atoms: _318  and  _321
REMARK  117  A    between atoms: _321  and  _322
REMARK  118  A    between atoms: _325  and  _327
REMARK  119  A    between atoms: _327  and  _328
REMARK  120  A    between atoms: _327  and  _330
REMARK  121  A    between atoms: _330  and  _331
REMARK  122  A    between atoms: _333  and  _335
REMARK  123  A    between atoms: _335  and  _336
REMARK  124  A    between atoms: _335  and  _338
REMARK  125  A    between atoms: _338  and  _339
REMARK  126  A    between atoms: _342  and  _344
REMARK  127  A    between atoms: _344  and  _345
REMARK  128  A    between atoms: _344  and  _347
REMARK  129  A    between atoms: _347  and  _348
REMARK  130  A    between atoms: _351  and  _353
REMARK  131  A    between atoms: _353  and  _354
REMARK  132  A    between atoms: _353  and  _356
REMARK  133  A    between atoms: _356  and  _357
REMARK  134  A    between atoms: _361  and  _362
REMARK  135  A    between atoms: _368  and  _369
REMARK  136  A    between atoms: _374  and  _376
REMARK  137  A    between atoms: _376  and  _377
REMARK  138  A    between atoms: _376  and  _379
REMARK  139  A    between atoms: _379  and  _380
REMARK  140  A    between atoms: _383  and  _385
REMARK  141  A    between atoms: _385  and  _386
REMARK  142  A    between atoms: _385  and  _388
REMARK  143  A    between atoms: _388  and  _389
REMARK  144  A    between atoms: _392  and  _394
REMARK  145  A    between atoms: _394  and  _395
REMARK  146  A    between atoms: _394  and  _397
REMARK  147  A    between atoms: _399  and  _401
REMARK  148  A    between atoms: _401  and  _402
REMARK  149  A    between atoms: _401  and  _404
REMARK  150  A    between atoms: _407  and  _409
REMARK  151  A    between atoms: _409  and  _410
REMARK  152  A    between atoms: _409  and  _412
REMARK  153  A    between atoms: _412  and  _413
REMARK  154  A    between atoms: _423  and  _425
REMARK  155  A    between atoms: _425  and  _426
REMARK  156  A    between atoms: _425  and  _428
REMARK  157  A    between atoms: _428  and  _429
REMARK  158  A    between atoms: _434  and  _436
REMARK  159  A    between atoms: _436  and  _437
REMARK  160  A    between atoms: _436  and  _439
REMARK  161  A    between atoms: _439  and  _440
REMARK  162  A    between atoms: _440  and  _441
REMARK  163  A    between atoms: _441  and  _442
REMARK                            x       y       z     vdW  Elec       q    Type
REMARK                         _______ _______ _______ _____ _____    ______ ____
ROOT
ATOM      1  O   HOH     1       4.882   6.055  12.715  0.00  0.00    +0.000 OA
ENDROOT
TORSDOF 0
REMARK  Name = ../refined-set-2016/3oim/3oim_pocket.pdb
REMARK  163 active torsions:
REMARK  status: ('A' for Active; 'I' for Inactive)
REMARK    1  A    between atoms: _1  and  _3
REMARK    2  A    between atoms: _3  and  _4
REMARK    3  A    between atoms: _3  and  _6
REMARK    4  A    between atoms: _6  and  _7
REMARK    5  A    between atoms: _17  and  _19
REMARK    6  A    between atoms: _19  and  _20
REMARK    7  A    between atoms: _19  and  _22
REMARK    8  A    between atoms: _22  and  _23
REMARK    9  A    between atoms: _28  and  _29
REMARK   10  A    between atoms: _31  and  _33
REMARK   11  A    between atoms: _33  and  _34
REMARK   12  A    between atoms: _33  and  _36
REMARK   13  A    between atoms: _36  and  _37
REMARK   14  A    between atoms: _43  and  _45
REMARK   15  A    between atoms: _45  and  _46
REMARK   16  A    between atoms: _45  and  _48
REMARK   17  A    between atoms: _48  and  _49
REMARK   18  A    between atoms: _52  and  _53
REMARK   19  A    between atoms: _58  and  _60
REMARK   20  A    between atoms: _60  and  _61
REMARK   21  A    between atoms: _60  and  _63
REMARK   22  A    between atoms: _63  and  _64
REMARK   23  A    between atoms: _69  and  _71
REMARK   24  A    between atoms: _71  and  _72
REMARK   25  A    between atoms: _71  and  _74
REMARK   26  A    between atoms: _74  and  _75
REMARK   27  A    between atoms: _80  and  _82
REMARK   28  A    between atoms: _82  and  _83
REMARK   29  A    between atoms: _86  and  _88
REMARK   30  A    between atoms: _88  and  _89
REMARK   31  A    between atoms: _88  and  _91
REMARK   32  A    between atoms: _91  and  _92
REMARK   33  A    between atoms: _97  and  _99
REMARK   34  A    between atoms: _99  and  _100
REMARK   35  A    between atoms: _99  and  _102
REMARK   36  A    between atoms: _102  and  _103
REMARK   37  A    between atoms: _106  and  _108
REMARK   38  A    between atoms: _108  and  _109
REMARK   39  A    between atoms: _108  and  _111
REMARK   40  A    between atoms: _111  and  _112
REMARK   41  A    between atoms: _112  and  _113
REMARK   42  A    between atoms: _118  and  _120
REMARK   43  A    between atoms: _120  and  _121
REMARK   44  A    between atoms: _120  and  _123
REMARK   45  A    between atoms: _123  and  _124
REMARK   46  A    between atoms: _130  and  _132
REMARK   47  A    between atoms: _143  and  _146
REMARK   48  A    between atoms: _146  and  _147
REMARK   49  A    between atoms: _155  and  _156
REMARK   50  A    between atoms: _164  and  _166
REMARK   51  A    between atoms: _166  and  _167
REMARK   52  A    between atoms: _166  and  _169
REMARK   53  A    between atoms: _169  and  _170
REMARK   54  A    between atoms: _170  and  _171
REMARK   55  A    between atoms: _174  and  _176
REMARK   56  A    between atoms: _176  and  _177
REMARK   57  A    between atoms: _176  and  _179
REMARK   58  A    between atoms: _179  and  _180
REMARK   59  A    between atoms: _185  and  _187
REMARK   60  A    between atoms: _187  and  _188
REMARK   61  A    between atoms: _187  and  _190
REMARK   62  A    between atoms: _190  and  _191
REMARK   63  A    between atoms: _191  and  _192
REMARK   64  A    between atoms: _195  and  _197
REMARK   65  A    between atoms: _197  and  _198
REMARK   66  A    between atoms: _197  and  _200
REMARK   67  A    between atoms: _200  and  _201
REMARK   68  A    between atoms: _204  and  _206
REMARK   69  A    between atoms: _206  and  _207
REMARK   70  A    between atoms: _206  and  _209
REMARK   71  A    between atoms: _209  and  _210
REMARK   72  A    between atoms: _211  and  ZN_451
REMARK   73  A    between atoms: _215  and  _217
REMARK   74  A    between atoms: _217  and  _218
REMARK   75  A    between atoms: _217  and  _220
REMARK   76  A    between atoms: _220  and  _221
REMARK   77  A    between atoms: _224  and  _226
REMARK   78  A    between atoms: _226  and  _227
REMARK   79  A    between atoms: _226  and  _229
REMARK   80  A    between atoms: _232  and  _234
REMARK   81  A    between atoms: _234  and  _235
REMARK   82  A    between atoms: _234  and  _237
REMARK   83  A    between atoms: _237  and  _238
REMARK   84  A    between atoms: _243  and  _245
REMARK   85  A    between atoms: _245  and  _246
REMARK   86  A    between atoms: _245  and  _248
REMARK   87  A    between atoms: _248  and  _249
REMARK   88  A    between atoms: _255  and  _257
REMARK   89  A    between atoms: _257  and  _258
REMARK   90  A    between atoms: _260  and  _262
REMARK   91  A    between atoms: _262  and  _263
REMARK   92  A    between atoms: _262  and  _265
REMARK   93  A    between atoms: _265  and  _266
REMARK   94  A    between atoms: _266  and  _267
REMARK   95  A    between atoms: _267  and  _268
REMARK   96  A    between atoms: _268  and  _269
REMARK   97  A    between atoms: _273  and  _275
REMARK   98  A    between atoms: _275  and  _276
REMARK   99  A    between atoms: _275  and  _278
REMARK  100  A    between atoms: _281  and  _283
REMARK  101  A    between atoms: _283  and  _284
REMARK  102  A    between atoms: _283  and  _286
REMARK  103  A    between atoms: _286  and  _287
REMARK  104  A    between atoms: _287  and  _288
REMARK  105  A    between atoms: _293  and  _295
REMARK  106  A    between atoms: _295  and  _296
REMARK  107  A    between atoms: _295  and  _298
REMARK  108  A    between atoms: _298  and  _299
REMARK  109  A    between atoms: _302  and  _304
REMARK  110  A    between atoms: _304  and  _305
REMARK  111  A    between atoms: _308  and  _310
REMARK  112  A    between atoms: _310  and  _311
REMARK  113  A    between atoms: _310  and  _313
REMARK  114  A    between atoms: _316  and  _318
REMARK  115  A    between atoms: _318  and  _319
REMARK  116  A    between atoms: _318  and  _321
REMARK  117  A    between atoms: _321  and  _322
REMARK  118  A    between atoms: _325  and  _327
REMARK  119  A    between atoms: _327  and  _328
REMARK  120  A    between atoms: _327  and  _330
REMARK  121  A    between atoms: _330  and  _331
REMARK  122  A    between atoms: _333  and  _335
REMARK  123  A    between atoms: _335  and  _336
REMARK  124  A    between atoms: _335  and  _338
REMARK  125  A    between atoms: _338  and  _339
REMARK  126  A    between atoms: _342  and  _344
REMARK  127  A    between atoms: _344  and  _345
REMARK  128  A    between atoms: _344  and  _347
REMARK  129  A    between atoms: _347  and  _348
REMARK  130  A    between atoms: _351  and  _353
REMARK  131  A    between atoms: _353  and  _354
REMARK  132  A    between atoms: _353  and  _356
REMARK  133  A    between atoms: _356  and  _357
REMARK  134  A    between atoms: _361  and  _362
REMARK  135  A    between atoms: _368  and  _369
REMARK  136  A    between atoms: _374  and  _376
REMARK  137  A    between atoms: _376  and  _377
REMARK  138  A    between atoms: _376  and  _379
REMARK  139  A    between atoms: _379  and  _380
REMARK  140  A    between atoms: _383  and  _385
REMARK  141  A    between atoms: _385  and  _386
REMARK  142  A    between atoms: _385  and  _388
REMARK  143  A    between atoms: _388  and  _389
REMARK  144  A    between atoms: _392  and  _394
REMARK  145  A    between atoms: _394  and  _395
REMARK  146  A    between atoms: _394  and  _397
REMARK  147  A    between atoms: _399  and  _401
REMARK  148  A    between atoms: _401  and  _402
REMARK  149  A    between atoms: _401  and  _404
REMARK  150  A    between atoms: _407  and  _409
REMARK  151  A    between atoms: _409  and  _410
REMARK  152  A    between atoms: _409  and  _412
REMARK  153  A    between atoms: _412  and  _413
REMARK  154  A    between atoms: _423  and  _425
REMARK  155  A    between atoms: _425  and  _426
REMARK  156  A    between atoms: _425  and  _428
REMARK  157  A    between atoms: _428  and  _429
REMARK  158  A    between atoms: _434  and  _436
REMARK  159  A    between atoms: _436  and  _437
REMARK  160  A    between atoms: _436  and  _439
REMARK  161  A    between atoms: _439  and  _440
REMARK  162  A    between atoms: _440  and  _441
REMARK  163  A    between atoms: _441  and  _442
REMARK                            x       y       z     vdW  Elec       q    Type
REMARK                         _______ _______ _______ _____ _____    ______ ____
ROOT
ATOM      1  O   HOH     1      -5.723  15.882  11.894  0.00  0.00    +0.000 OA
ENDROOT
TORSDOF 0
REMARK  Name = ../refined-set-2016/3oim/3oim_pocket.pdb
REMARK  163 active torsions:
REMARK  status: ('A' for Active; 'I' for Inactive)
REMARK    1  A    between atoms: _1  and  _3
REMARK    2  A    between atoms: _3  and  _4
REMARK    3  A    between atoms: _3  and  _6
REMARK    4  A    between atoms: _6  and  _7
REMARK    5  A    between atoms: _17  and  _19
REMARK    6  A    between atoms: _19  and  _20
REMARK    7  A    between atoms: _19  and  _22
REMARK    8  A    between atoms: _22  and  _23
REMARK    9  A    between atoms: _28  and  _29
REMARK   10  A    between atoms: _31  and  _33
REMARK   11  A    between atoms: _33  and  _34
REMARK   12  A    between atoms: _33  and  _36
REMARK   13  A    between atoms: _36  and  _37
REMARK   14  A    between atoms: _43  and  _45
REMARK   15  A    between atoms: _45  and  _46
REMARK   16  A    between atoms: _45  and  _48
REMARK   17  A    between atoms: _48  and  _49
REMARK   18  A    between atoms: _52  and  _53
REMARK   19  A    between atoms: _58  and  _60
REMARK   20  A    between atoms: _60  and  _61
REMARK   21  A    between atoms: _60  and  _63
REMARK   22  A    between atoms: _63  and  _64
REMARK   23  A    between atoms: _69  and  _71
REMARK   24  A    between atoms: _71  and  _72
REMARK   25  A    between atoms: _71  and  _74
REMARK   26  A    between atoms: _74  and  _75
REMARK   27  A    between atoms: _80  and  _82
REMARK   28  A    between atoms: _82  and  _83
REMARK   29  A    between atoms: _86  and  _88
REMARK   30  A    between atoms: _88  and  _89
REMARK   31  A    between atoms: _88  and  _91
REMARK   32  A    between atoms: _91  and  _92
REMARK   33  A    between atoms: _97  and  _99
REMARK   34  A    between atoms: _99  and  _100
REMARK   35  A    between atoms: _99  and  _102
REMARK   36  A    between atoms: _102  and  _103
REMARK   37  A    between atoms: _106  and  _108
REMARK   38  A    between atoms: _108  and  _109
REMARK   39  A    between atoms: _108  and  _111
REMARK   40  A    between atoms: _111  and  _112
REMARK   41  A    between atoms: _112  and  _113
REMARK   42  A    between atoms: _118  and  _120
REMARK   43  A    between atoms: _120  and  _121
REMARK   44  A    between atoms: _120  and  _123
REMARK   45  A    between atoms: _123  and  _124
REMARK   46  A    between atoms: _130  and  _132
REMARK   47  A    between atoms: _143  and  _146
REMARK   48  A    between atoms: _146  and  _147
REMARK   49  A    between atoms: _155  and  _156
REMARK   50  A    between atoms: _164  and  _166
REMARK   51  A    between atoms: _166  and  _167
REMARK   52  A    between atoms: _166  and  _169
REMARK   53  A    between atoms: _169  and  _170
REMARK   54  A    between atoms: _170  and  _171
REMARK   55  A    between atoms: _174  and  _176
REMARK   56  A    between atoms: _176  and  _177
REMARK   57  A    between atoms: _176  and  _179
REMARK   58  A    between atoms: _179  and  _180
REMARK   59  A    between atoms: _185  and  _187
REMARK   60  A    between atoms: _187  and  _188
REMARK   61  A    between atoms: _187  and  _190
REMARK   62  A    between atoms: _190  and  _191
REMARK   63  A    between atoms: _191  and  _192
REMARK   64  A    between atoms: _195  and  _197
REMARK   65  A    between atoms: _197  and  _198
REMARK   66  A    between atoms: _197  and  _200
REMARK   67  A    between atoms: _200  and  _201
REMARK   68  A    between atoms: _204  and  _206
REMARK   69  A    between atoms: _206  and  _207
REMARK   70  A    between atoms: _206  and  _209
REMARK   71  A    between atoms: _209  and  _210
REMARK   72  A    between atoms: _211  and  ZN_451
REMARK   73  A    between atoms: _215  and  _217
REMARK   74  A    between atoms: _217  and  _218
REMARK   75  A    between atoms: _217  and  _220
REMARK   76  A    between atoms: _220  and  _221
REMARK   77  A    between atoms: _224  and  _226
REMARK   78  A    between atoms: _226  and  _227
REMARK   79  A    between atoms: _226  and  _229
REMARK   80  A    between atoms: _232  and  _234
REMARK   81  A    between atoms: _234  and  _235
REMARK   82  A    between atoms: _234  and  _237
REMARK   83  A    between atoms: _237  and  _238
REMARK   84  A    between atoms: _243  and  _245
REMARK   85  A    between atoms: _245  and  _246
REMARK   86  A    between atoms: _245  and  _248
REMARK   87  A    between atoms: _248  and  _249
REMARK   88  A    between atoms: _255  and  _257
REMARK   89  A    between atoms: _257  and  _258
REMARK   90  A    between atoms: _260  and  _262
REMARK   91  A    between atoms: _262  and  _263
REMARK   92  A    between atoms: _262  and  _265
REMARK   93  A    between atoms: _265  and  _266
REMARK   94  A    between atoms: _266  and  _267
REMARK   95  A    between atoms: _267  and  _268
REMARK   96  A    between atoms: _268  and  _269
REMARK   97  A    between atoms: _273  and  _275
REMARK   98  A    between atoms: _275  and  _276
REMARK   99  A    between atoms: _275  and  _278
REMARK  100  A    between atoms: _281  and  _283
REMARK  101  A    between atoms: _283  and  _284
REMARK  102  A    between atoms: _283  and  _286
REMARK  103  A    between atoms: _286  and  _287
REMARK  104  A    between atoms: _287  and  _288
REMARK  105  A    between atoms: _293  and  _295
REMARK  106  A    between atoms: _295  and  _296
REMARK  107  A    between atoms: _295  and  _298
REMARK  108  A    between atoms: _298  and  _299
REMARK  109  A    between atoms: _302  and  _304
REMARK  110  A    between atoms: _304  and  _305
REMARK  111  A    between atoms: _308  and  _310
REMARK  112  A    between atoms: _310  and  _311
REMARK  113  A    between atoms: _310  and  _313
REMARK  114  A    between atoms: _316  and  _318
REMARK  115  A    between atoms: _318  and  _319
REMARK  116  A    between atoms: _318  and  _321
REMARK  117  A    between atoms: _321  and  _322
REMARK  118  A    between atoms: _325  and  _327
REMARK  119  A    between atoms: _327  and  _328
REMARK  120  A    between atoms: _327  and  _330
REMARK  121  A    between atoms: _330  and  _331
REMARK  122  A    between atoms: _333  and  _335
REMARK  123  A    between atoms: _335  and  _336
REMARK  124  A    between atoms: _335  and  _338
REMARK  125  A    between atoms: _338  and  _339
REMARK  126  A    between atoms: _342  and  _344
REMARK  127  A    between atoms: _344  and  _345
REMARK  128  A    between atoms: _344  and  _347
REMARK  129  A    between atoms: _347  and  _348
REMARK  130  A    between atoms: _351  and  _353
REMARK  131  A    between atoms: _353  and  _354
REMARK  132  A    between atoms: _353  and  _356
REMARK  133  A    between atoms: _356  and  _357
REMARK  134  A    between atoms: _361  and  _362
REMARK  135  A    between atoms: _368  and  _369
REMARK  136  A    between atoms: _374  and  _376
REMARK  137  A    between atoms: _376  and  _377
REMARK  138  A    between atoms: _376  and  _379
REMARK  139  A    between atoms: _379  and  _380
REMARK  140  A    between atoms: _383  and  _385
REMARK  141  A    between atoms: _385  and  _386
REMARK  142  A    between atoms: _385  and  _388
REMARK  143  A    between atoms: _388  and  _389
REMARK  144  A    between atoms: _392  and  _394
REMARK  145  A    between atoms: _394  and  _395
REMARK  146  A    between atoms: _394  and  _397
REMARK  147  A    between atoms: _399  and  _401
REMARK  148  A    between atoms: _401  and  _402
REMARK  149  A    between atoms: _401  and  _404
REMARK  150  A    between atoms: _407  and  _409
REMARK  151  A    between atoms: _409  and  _410
REMARK  152  A    between atoms: _409  and  _412
REMARK  153  A    between atoms: _412  and  _413
REMARK  154  A    between atoms: _423  and  _425
REMARK  155  A    between atoms: _425  and  _426
REMARK  156  A    between atoms: _425  and  _428
REMARK  157  A    between atoms: _428  and  _429
REMARK  158  A    between atoms: _434  and  _436
REMARK  159  A    between atoms: _436  and  _437
REMARK  160  A    between atoms: _436  and  _439
REMARK  161  A    between atoms: _439  and  _440
REMARK  162  A    between atoms: _440  and  _441
REMARK  163  A    between atoms: _441  and  _442
REMARK                            x       y       z     vdW  Elec       q    Type
REMARK                         _______ _______ _______ _____ _____    ______ ____
ROOT
ATOM      1  O   HOH     1      -8.360   7.572   8.457  0.00  0.00    +0.000 OA
ENDROOT
TORSDOF 0
REMARK  Name = ../refined-set-2016/3oim/3oim_pocket.pdb
REMARK  163 active torsions:
REMARK  status: ('A' for Active; 'I' for Inactive)
REMARK    1  A    between atoms: _1  and  _3
REMARK    2  A    between atoms: _3  and  _4
REMARK    3  A    between atoms: _3  and  _6
REMARK    4  A    between atoms: _6  and  _7
REMARK    5  A    between atoms: _17  and  _19
REMARK    6  A    between atoms: _19  and  _20
REMARK    7  A    between atoms: _19  and  _22
REMARK    8  A    between atoms: _22  and  _23
REMARK    9  A    between atoms: _28  and  _29
REMARK   10  A    between atoms: _31  and  _33
REMARK   11  A    between atoms: _33  and  _34
REMARK   12  A    between atoms: _33  and  _36
REMARK   13  A    between atoms: _36  and  _37
REMARK   14  A    between atoms: _43  and  _45
REMARK   15  A    between atoms: _45  and  _46
REMARK   16  A    between atoms: _45  and  _48
REMARK   17  A    between atoms: _48  and  _49
REMARK   18  A    between atoms: _52  and  _53
REMARK   19  A    between atoms: _58  and  _60
REMARK   20  A    between atoms: _60  and  _61
REMARK   21  A    between atoms: _60  and  _63
REMARK   22  A    between atoms: _63  and  _64
REMARK   23  A    between atoms: _69  and  _71
REMARK   24  A    between atoms: _71  and  _72
REMARK   25  A    between atoms: _71  and  _74
REMARK   26  A    between atoms: _74  and  _75
REMARK   27  A    between atoms: _80  and  _82
REMARK   28  A    between atoms: _82  and  _83
REMARK   29  A    between atoms: _86  and  _88
REMARK   30  A    between atoms: _88  and  _89
REMARK   31  A    between atoms: _88  and  _91
REMARK   32  A    between atoms: _91  and  _92
REMARK   33  A    between atoms: _97  and  _99
REMARK   34  A    between atoms: _99  and  _100
REMARK   35  A    between atoms: _99  and  _102
REMARK   36  A    between atoms: _102  and  _103
REMARK   37  A    between atoms: _106  and  _108
REMARK   38  A    between atoms: _108  and  _109
REMARK   39  A    between atoms: _108  and  _111
REMARK   40  A    between atoms: _111  and  _112
REMARK   41  A    between atoms: _112  and  _113
REMARK   42  A    between atoms: _118  and  _120
REMARK   43  A    between atoms: _120  and  _121
REMARK   44  A    between atoms: _120  and  _123
REMARK   45  A    between atoms: _123  and  _124
REMARK   46  A    between atoms: _130  and  _132
REMARK   47  A    between atoms: _143  and  _146
REMARK   48  A    between atoms: _146  and  _147
REMARK   49  A    between atoms: _155  and  _156
REMARK   50  A    between atoms: _164  and  _166
REMARK   51  A    between atoms: _166  and  _167
REMARK   52  A    between atoms: _166  and  _169
REMARK   53  A    between atoms: _169  and  _170
REMARK   54  A    between atoms: _170  and  _171
REMARK   55  A    between atoms: _174  and  _176
REMARK   56  A    between atoms: _176  and  _177
REMARK   57  A    between atoms: _176  and  _179
REMARK   58  A    between atoms: _179  and  _180
REMARK   59  A    between atoms: _185  and  _187
REMARK   60  A    between atoms: _187  and  _188
REMARK   61  A    between atoms: _187  and  _190
REMARK   62  A    between atoms: _190  and  _191
REMARK   63  A    between atoms: _191  and  _192
REMARK   64  A    between atoms: _195  and  _197
REMARK   65  A    between atoms: _197  and  _198
REMARK   66  A    between atoms: _197  and  _200
REMARK   67  A    between atoms: _200  and  _201
REMARK   68  A    between atoms: _204  and  _206
REMARK   69  A    between atoms: _206  and  _207
REMARK   70  A    between atoms: _206  and  _209
REMARK   71  A    between atoms: _209  and  _210
REMARK   72  A    between atoms: _211  and  ZN_451
REMARK   73  A    between atoms: _215  and  _217
REMARK   74  A    between atoms: _217  and  _218
REMARK   75  A    between atoms: _217  and  _220
REMARK   76  A    between atoms: _220  and  _221
REMARK   77  A    between atoms: _224  and  _226
REMARK   78  A    between atoms: _226  and  _227
REMARK   79  A    between atoms: _226  and  _229
REMARK   80  A    between atoms: _232  and  _234
REMARK   81  A    between atoms: _234  and  _235
REMARK   82  A    between atoms: _234  and  _237
REMARK   83  A    between atoms: _237  and  _238
REMARK   84  A    between atoms: _243  and  _245
REMARK   85  A    between atoms: _245  and  _246
REMARK   86  A    between atoms: _245  and  _248
REMARK   87  A    between atoms: _248  and  _249
REMARK   88  A    between atoms: _255  and  _257
REMARK   89  A    between atoms: _257  and  _258
REMARK   90  A    between atoms: _260  and  _262
REMARK   91  A    between atoms: _262  and  _263
REMARK   92  A    between atoms: _262  and  _265
REMARK   93  A    between atoms: _265  and  _266
REMARK   94  A    between atoms: _266  and  _267
REMARK   95  A    between atoms: _267  and  _268
REMARK   96  A    between atoms: _268  and  _269
REMARK   97  A    between atoms: _273  and  _275
REMARK   98  A    between atoms: _275  and  _276
REMARK   99  A    between atoms: _275  and  _278
REMARK  100  A    between atoms: _281  and  _283
REMARK  101  A    between atoms: _283  and  _284
REMARK  102  A    between atoms: _283  and  _286
REMARK  103  A    between atoms: _286  and  _287
REMARK  104  A    between atoms: _287  and  _288
REMARK  105  A    between atoms: _293  and  _295
REMARK  106  A    between atoms: _295  and  _296
REMARK  107  A    between atoms: _295  and  _298
REMARK  108  A    between atoms: _298  and  _299
REMARK  109  A    between atoms: _302  and  _304
REMARK  110  A    between atoms: _304  and  _305
REMARK  111  A    between atoms: _308  and  _310
REMARK  112  A    between atoms: _310  and  _311
REMARK  113  A    between atoms: _310  and  _313
REMARK  114  A    between atoms: _316  and  _318
REMARK  115  A    between atoms: _318  and  _319
REMARK  116  A    between atoms: _318  and  _321
REMARK  117  A    between atoms: _321  and  _322
REMARK  118  A    between atoms: _325  and  _327
REMARK  119  A    between atoms: _327  and  _328
REMARK  120  A    between atoms: _327  and  _330
REMARK  121  A    between atoms: _330  and  _331
REMARK  122  A    between atoms: _333  and  _335
REMARK  123  A    between atoms: _335  and  _336
REMARK  124  A    between atoms: _335  and  _338
REMARK  125  A    between atoms: _338  and  _339
REMARK  126  A    between atoms: _342  and  _344
REMARK  127  A    between atoms: _344  and  _345
REMARK  128  A    between atoms: _344  and  _347
REMARK  129  A    between atoms: _347  and  _348
REMARK  130  A    between atoms: _351  and  _353
REMARK  131  A    between atoms: _353  and  _354
REMARK  132  A    between atoms: _353  and  _356
REMARK  133  A    between atoms: _356  and  _357
REMARK  134  A    between atoms: _361  and  _362
REMARK  135  A    between atoms: _368  and  _369
REMARK  136  A    between atoms: _374  and  _376
REMARK  137  A    between atoms: _376  and  _377
REMARK  138  A    between atoms: _376  and  _379
REMARK  139  A    between atoms: _379  and  _380
REMARK  140  A    between atoms: _383  and  _385
REMARK  141  A    between atoms: _385  and  _386
REMARK  142  A    between atoms: _385  and  _388
REMARK  143  A    between atoms: _388  and  _389
REMARK  144  A    between atoms: _392  and  _394
REMARK  145  A    between atoms: _394  and  _395
REMARK  146  A    between atoms: _394  and  _397
REMARK  147  A    between atoms: _399  and  _401
REMARK  148  A    between atoms: _401  and  _402
REMARK  149  A    between atoms: _401  and  _404
REMARK  150  A    between atoms: _407  and  _409
REMARK  151  A    between atoms: _409  and  _410
REMARK  152  A    between atoms: _409  and  _412
REMARK  153  A    between atoms: _412  and  _413
REMARK  154  A    between atoms: _423  and  _425
REMARK  155  A    between atoms: _425  and  _426
REMARK  156  A    between atoms: _425  and  _428
REMARK  157  A    between atoms: _428  and  _429
REMARK  158  A    between atoms: _434  and  _436
REMARK  159  A    between atoms: _436  and  _437
REMARK  160  A    between atoms: _436  and  _439
REMARK  161  A    between atoms: _439  and  _440
REMARK  162  A    between atoms: _440  and  _441
REMARK  163  A    between atoms: _441  and  _442
REMARK                            x       y       z     vdW  Elec       q    Type
REMARK                         _______ _______ _______ _____ _____    ______ ____
ROOT
ATOM      1  O   HOH     1      -6.243   7.038  11.086  0.00  0.00    +0.000 OA
ENDROOT
TORSDOF 0
