REMARK  Name = ../refined-set-2016/1y6q/1y6q_pocket.pdb
REMARK  196 active torsions:
REMARK  status: ('A' for Active; 'I' for Inactive)
REMARK    1  A    between atoms: _1  and  _3
REMARK    2  A    between atoms: _3  and  _4
REMARK    3  A    between atoms: _6  and  _8
REMARK    4  A    between atoms: _8  and  _9
REMARK    5  A    between atoms: _12  and  _14
REMARK    6  A    between atoms: _14  and  _15
REMARK    7  A    between atoms: _14  and  _17
REMARK    8  A    between atoms: _17  and  _18
REMARK    9  A    between atoms: _18  and  _19
REMARK   10  A    between atoms: _21  and  _23
REMARK   11  A    between atoms: _23  and  _24
REMARK   12  A    between atoms: _23  and  _26
REMARK   13  A    between atoms: _26  and  _27
REMARK   14  A    between atoms: _27  and  _28
REMARK   15  A    between atoms: _31  and  _33
REMARK   16  A    between atoms: _33  and  _34
REMARK   17  A    between atoms: _33  and  _36
REMARK   18  A    between atoms: _36  and  _37
REMARK   19  A    between atoms: _39  and  _41
REMARK   20  A    between atoms: _41  and  _42
REMARK   21  A    between atoms: _44  and  _46
REMARK   22  A    between atoms: _46  and  _47
REMARK   23  A    between atoms: _46  and  _49
REMARK   24  A    between atoms: _49  and  _50
REMARK   25  A    between atoms: _53  and  _55
REMARK   26  A    between atoms: _55  and  _56
REMARK   27  A    between atoms: _58  and  _60
REMARK   28  A    between atoms: _60  and  _61
REMARK   29  A    between atoms: _60  and  _63
REMARK   30  A    between atoms: _63  and  _64
REMARK   31  A    between atoms: _69  and  _71
REMARK   32  A    between atoms: _71  and  _72
REMARK   33  A    between atoms: _71  and  _74
REMARK   34  A    between atoms: _74  and  _75
REMARK   35  A    between atoms: _78  and  _80
REMARK   36  A    between atoms: _80  and  _81
REMARK   37  A    between atoms: _83  and  _85
REMARK   38  A    between atoms: _85  and  _86
REMARK   39  A    between atoms: _85  and  _88
REMARK   40  A    between atoms: _88  and  _89
REMARK   41  A    between atoms: _91  and  _93
REMARK   42  A    between atoms: _93  and  _94
REMARK   43  A    between atoms: _97  and  _99
REMARK   44  A    between atoms: _99  and  _100
REMARK   45  A    between atoms: _102  and  _104
REMARK   46  A    between atoms: _104  and  _105
REMARK   47  A    between atoms: _107  and  _109
REMARK   48  A    between atoms: _109  and  _110
REMARK   49  A    between atoms: _109  and  _112
REMARK   50  A    between atoms: _112  and  _113
REMARK   51  A    between atoms: _116  and  _118
REMARK   52  A    between atoms: _118  and  _119
REMARK   53  A    between atoms: _118  and  _121
REMARK   54  A    between atoms: _121  and  _122
REMARK   55  A    between atoms: _127  and  _129
REMARK   56  A    between atoms: _129  and  _130
REMARK   57  A    between atoms: _129  and  _132
REMARK   58  A    between atoms: _135  and  _137
REMARK   59  A    between atoms: _137  and  _138
REMARK   60  A    between atoms: _137  and  _140
REMARK   61  A    between atoms: _140  and  _141
REMARK   62  A    between atoms: _143  and  _145
REMARK   63  A    between atoms: _145  and  _146
REMARK   64  A    between atoms: _148  and  _150
REMARK   65  A    between atoms: _150  and  _151
REMARK   66  A    between atoms: _150  and  _153
REMARK   67  A    between atoms: _153  and  _154
REMARK   68  A    between atoms: _157  and  _159
REMARK   69  A    between atoms: _159  and  _160
REMARK   70  A    between atoms: _163  and  _165
REMARK   71  A    between atoms: _165  and  _166
REMARK   72  A    between atoms: _165  and  _168
REMARK   73  A    between atoms: _168  and  _169
REMARK   74  A    between atoms: _175  and  _177
REMARK   75  A    between atoms: _177  and  _178
REMARK   76  A    between atoms: _177  and  _180
REMARK   77  A    between atoms: _180  and  _181
REMARK   78  A    between atoms: _184  and  _186
REMARK   79  A    between atoms: _186  and  _187
REMARK   80  A    between atoms: _186  and  _189
REMARK   81  A    between atoms: _189  and  _190
REMARK   82  A    between atoms: _195  and  _197
REMARK   83  A    between atoms: _197  and  _198
REMARK   84  A    between atoms: _200  and  _202
REMARK   85  A    between atoms: _202  and  _203
REMARK   86  A    between atoms: _202  and  _205
REMARK   87  A    between atoms: _205  and  _206
REMARK   88  A    between atoms: _209  and  _211
REMARK   89  A    between atoms: _211  and  _212
REMARK   90  A    between atoms: _211  and  _214
REMARK   91  A    between atoms: _214  and  _215
REMARK   92  A    between atoms: _218  and  _220
REMARK   93  A    between atoms: _220  and  _221
REMARK   94  A    between atoms: _224  and  _226
REMARK   95  A    between atoms: _226  and  _227
REMARK   96  A    between atoms: _226  and  _229
REMARK   97  A    between atoms: _232  and  _234
REMARK   98  A    between atoms: _234  and  _235
REMARK   99  A    between atoms: _234  and  _237
REMARK  100  A    between atoms: _237  and  _238
REMARK  101  A    between atoms: _238  and  _239
REMARK  102  A    between atoms: _242  and  _244
REMARK  103  A    between atoms: _244  and  _245
REMARK  104  A    between atoms: _244  and  _247
REMARK  105  A    between atoms: _247  and  _248
REMARK  106  A    between atoms: _248  and  _249
REMARK  107  A    between atoms: _251  and  _253
REMARK  108  A    between atoms: _253  and  _254
REMARK  109  A    between atoms: _253  and  _256
REMARK  110  A    between atoms: _256  and  _257
REMARK  111  A    between atoms: _257  and  _258
REMARK  112  A    between atoms: _261  and  _263
REMARK  113  A    between atoms: _263  and  _264
REMARK  114  A    between atoms: _267  and  _269
REMARK  115  A    between atoms: _269  and  _270
REMARK  116  A    between atoms: _269  and  _272
REMARK  117  A    between atoms: _272  and  _273
REMARK  118  A    between atoms: _273  and  _274
REMARK  119  A    between atoms: _274  and  _275
REMARK  120  A    between atoms: _284  and  _286
REMARK  121  A    between atoms: _286  and  _287
REMARK  122  A    between atoms: _290  and  _292
REMARK  123  A    between atoms: _292  and  _293
REMARK  124  A    between atoms: _292  and  _295
REMARK  125  A    between atoms: _295  and  _296
REMARK  126  A    between atoms: _299  and  _301
REMARK  127  A    between atoms: _301  and  _302
REMARK  128  A    between atoms: _301  and  _304
REMARK  129  A    between atoms: _304  and  _305
REMARK  130  A    between atoms: _307  and  _309
REMARK  131  A    between atoms: _309  and  _310
REMARK  132  A    between atoms: _309  and  _312
REMARK  133  A    between atoms: _312  and  _313
REMARK  134  A    between atoms: _316  and  _318
REMARK  135  A    between atoms: _318  and  _319
REMARK  136  A    between atoms: _318  and  _321
REMARK  137  A    between atoms: _324  and  _326
REMARK  138  A    between atoms: _326  and  _327
REMARK  139  A    between atoms: _330  and  _332
REMARK  140  A    between atoms: _332  and  _333
REMARK  141  A    between atoms: _332  and  _335
REMARK  142  A    between atoms: _335  and  _336
REMARK  143  A    between atoms: _339  and  _341
REMARK  144  A    between atoms: _341  and  _342
REMARK  145  A    between atoms: _341  and  _344
REMARK  146  A    between atoms: _344  and  _345
REMARK  147  A    between atoms: _345  and  _346
REMARK  148  A    between atoms: _351  and  _353
REMARK  149  A    between atoms: _353  and  _354
REMARK  150  A    between atoms: _353  and  _356
REMARK  151  A    between atoms: _356  and  _357
REMARK  152  A    between atoms: _359  and  _361
REMARK  153  A    between atoms: _361  and  _362
REMARK  154  A    between atoms: _361  and  _364
REMARK  155  A    between atoms: _364  and  _365
REMARK  156  A    between atoms: _370  and  _372
REMARK  157  A    between atoms: _372  and  _373
REMARK  158  A    between atoms: _372  and  _375
REMARK  159  A    between atoms: _375  and  _376
REMARK  160  A    between atoms: _378  and  _380
REMARK  161  A    between atoms: _380  and  _381
REMARK  162  A    between atoms: _380  and  _383
REMARK  163  A    between atoms: _383  and  _384
REMARK  164  A    between atoms: _390  and  _392
REMARK  165  A    between atoms: _392  and  _393
REMARK  166  A    between atoms: _392  and  _395
REMARK  167  A    between atoms: _395  and  _396
REMARK  168  A    between atoms: _399  and  _401
REMARK  169  A    between atoms: _401  and  _402
REMARK  170  A    between atoms: _401  and  _404
REMARK  171  A    between atoms: _404  and  _405
REMARK  172  A    between atoms: _408  and  _410
REMARK  173  A    between atoms: _410  and  _411
REMARK  174  A    between atoms: _414  and  _416
REMARK  175  A    between atoms: _416  and  _417
REMARK  176  A    between atoms: _416  and  _419
REMARK  177  A    between atoms: _419  and  _420
REMARK  178  A    between atoms: _423  and  _425
REMARK  179  A    between atoms: _425  and  _426
REMARK  180  A    between atoms: _425  and  _428
REMARK  181  A    between atoms: _431  and  _433
REMARK  182  A    between atoms: _433  and  _434
REMARK  183  A    between atoms: _437  and  _439
REMARK  184  A    between atoms: _439  and  _440
REMARK  185  A    between atoms: _439  and  _442
REMARK  186  A    between atoms: _442  and  _443
REMARK  187  A    between atoms: _449  and  _451
REMARK  188  A    between atoms: _451  and  _452
REMARK  189  A    between atoms: _451  and  _454
REMARK  190  A    between atoms: _454  and  _455
REMARK  191  A    between atoms: _460  and  _461
REMARK  192  A    between atoms: _463  and  _465
REMARK  193  A    between atoms: _465  and  _466
REMARK  194  A    between atoms: _465  and  _468
REMARK  195  A    between atoms: _468  and  _469
REMARK  196  A    between atoms: _473  and  _474
REMARK                            x       y       z     vdW  Elec       q    Type
REMARK                         _______ _______ _______ _____ _____    ______ ____
ROOT
ATOM      1  C   ALA A   2      64.438  70.904  25.901  0.00  0.00    +0.241 C 
ATOM      2  O   ALA A   2      64.712  70.282  26.908  0.00  0.00    -0.273 OA
ATOM      3  N   MET A   3      64.260  70.324  24.719  0.00  0.00    -0.298 N 
ATOM      4  H   MET A   3      64.056  70.922  23.893  0.00  0.00    +0.150 HD
ENDROOT
BRANCH   1   5
ATOM      5  CA  ALA A   2      64.281  72.425  25.966  0.00  0.00    +0.149 C 
ATOM      6  CB  ALA A   2      62.826  72.775  25.641  0.00  0.00    +0.031 C 
BRANCH   5   9
ATOM      7  C   GLY A   1      66.475  73.380  25.465  0.00  0.00    +0.240 C 
ATOM      8  O   GLY A   1      66.942  72.961  26.536  0.00  0.00    -0.274 OA
ATOM      9  N   ALA A   2      65.207  73.171  25.104  0.00  0.00    -0.297 N 
ATOM     10  H   ALA A   2      64.868  73.544  24.194  0.00  0.00    +0.150 HD
BRANCH   7  11
ATOM     11  CA  GLY A   1      67.358  74.177  24.509  0.00  0.00    +0.169 C 
BRANCH  11  12
ATOM     12  N   GLY A   1      68.277  75.010  25.271  0.00  0.00    -0.236 NA
ATOM     13  H   GLY A   1      68.769  74.597  26.089  0.00  0.00    +0.142 HD
ENDBRANCH  11  12
ENDBRANCH   7  11
ENDBRANCH   5   9
ENDBRANCH   1   5
BRANCH   3  14
ATOM     14  CA  MET A   3      64.341  68.872  24.537  0.00  0.00    +0.138 C 
BRANCH  14  15
ATOM     15  C   MET A   3      65.724  68.324  24.210  0.00  0.00    +0.227 C 
ATOM     16  O   MET A   3      66.603  69.042  23.730  0.00  0.00    -0.286 OA
ENDBRANCH  14  15
BRANCH  14  17
ATOM     17  CB  MET A   3      63.379  68.432  23.421  0.00  0.00    +0.039 C 
BRANCH  17  18
ATOM     18  CG  MET A   3      61.970  69.009  23.561  0.00  0.00    +0.060 C 
BRANCH  18  19
ATOM     19  SD  MET A   3      60.946  68.637  22.140  0.00  0.00    -0.139 S 
ATOM     20  CE  MET A   3      60.808  66.834  22.329  0.00  0.00    +0.069 C 
ENDBRANCH  18  19
ENDBRANCH  17  18
ENDBRANCH  14  17
ENDBRANCH   3  14
TORSDOF 9
REMARK  Name = ../refined-set-2016/1y6q/1y6q_pocket.pdb
REMARK  196 active torsions:
REMARK  status: ('A' for Active; 'I' for Inactive)
REMARK    1  A    between atoms: _1  and  _3
REMARK    2  A    between atoms: _3  and  _4
REMARK    3  A    between atoms: _6  and  _8
REMARK    4  A    between atoms: _8  and  _9
REMARK    5  A    between atoms: _12  and  _14
REMARK    6  A    between atoms: _14  and  _15
REMARK    7  A    between atoms: _14  and  _17
REMARK    8  A    between atoms: _17  and  _18
REMARK    9  A    between atoms: _18  and  _19
REMARK   10  A    between atoms: _21  and  _23
REMARK   11  A    between atoms: _23  and  _24
REMARK   12  A    between atoms: _23  and  _26
REMARK   13  A    between atoms: _26  and  _27
REMARK   14  A    between atoms: _27  and  _28
REMARK   15  A    between atoms: _31  and  _33
REMARK   16  A    between atoms: _33  and  _34
REMARK   17  A    between atoms: _33  and  _36
REMARK   18  A    between atoms: _36  and  _37
REMARK   19  A    between atoms: _39  and  _41
REMARK   20  A    between atoms: _41  and  _42
REMARK   21  A    between atoms: _44  and  _46
REMARK   22  A    between atoms: _46  and  _47
REMARK   23  A    between atoms: _46  and  _49
REMARK   24  A    between atoms: _49  and  _50
REMARK   25  A    between atoms: _53  and  _55
REMARK   26  A    between atoms: _55  and  _56
REMARK   27  A    between atoms: _58  and  _60
REMARK   28  A    between atoms: _60  and  _61
REMARK   29  A    between atoms: _60  and  _63
REMARK   30  A    between atoms: _63  and  _64
REMARK   31  A    between atoms: _69  and  _71
REMARK   32  A    between atoms: _71  and  _72
REMARK   33  A    between atoms: _71  and  _74
REMARK   34  A    between atoms: _74  and  _75
REMARK   35  A    between atoms: _78  and  _80
REMARK   36  A    between atoms: _80  and  _81
REMARK   37  A    between atoms: _83  and  _85
REMARK   38  A    between atoms: _85  and  _86
REMARK   39  A    between atoms: _85  and  _88
REMARK   40  A    between atoms: _88  and  _89
REMARK   41  A    between atoms: _91  and  _93
REMARK   42  A    between atoms: _93  and  _94
REMARK   43  A    between atoms: _97  and  _99
REMARK   44  A    between atoms: _99  and  _100
REMARK   45  A    between atoms: _102  and  _104
REMARK   46  A    between atoms: _104  and  _105
REMARK   47  A    between atoms: _107  and  _109
REMARK   48  A    between atoms: _109  and  _110
REMARK   49  A    between atoms: _109  and  _112
REMARK   50  A    between atoms: _112  and  _113
REMARK   51  A    between atoms: _116  and  _118
REMARK   52  A    between atoms: _118  and  _119
REMARK   53  A    between atoms: _118  and  _121
REMARK   54  A    between atoms: _121  and  _122
REMARK   55  A    between atoms: _127  and  _129
REMARK   56  A    between atoms: _129  and  _130
REMARK   57  A    between atoms: _129  and  _132
REMARK   58  A    between atoms: _135  and  _137
REMARK   59  A    between atoms: _137  and  _138
REMARK   60  A    between atoms: _137  and  _140
REMARK   61  A    between atoms: _140  and  _141
REMARK   62  A    between atoms: _143  and  _145
REMARK   63  A    between atoms: _145  and  _146
REMARK   64  A    between atoms: _148  and  _150
REMARK   65  A    between atoms: _150  and  _151
REMARK   66  A    between atoms: _150  and  _153
REMARK   67  A    between atoms: _153  and  _154
REMARK   68  A    between atoms: _157  and  _159
REMARK   69  A    between atoms: _159  and  _160
REMARK   70  A    between atoms: _163  and  _165
REMARK   71  A    between atoms: _165  and  _166
REMARK   72  A    between atoms: _165  and  _168
REMARK   73  A    between atoms: _168  and  _169
REMARK   74  A    between atoms: _175  and  _177
REMARK   75  A    between atoms: _177  and  _178
REMARK   76  A    between atoms: _177  and  _180
REMARK   77  A    between atoms: _180  and  _181
REMARK   78  A    between atoms: _184  and  _186
REMARK   79  A    between atoms: _186  and  _187
REMARK   80  A    between atoms: _186  and  _189
REMARK   81  A    between atoms: _189  and  _190
REMARK   82  A    between atoms: _195  and  _197
REMARK   83  A    between atoms: _197  and  _198
REMARK   84  A    between atoms: _200  and  _202
REMARK   85  A    between atoms: _202  and  _203
REMARK   86  A    between atoms: _202  and  _205
REMARK   87  A    between atoms: _205  and  _206
REMARK   88  A    between atoms: _209  and  _211
REMARK   89  A    between atoms: _211  and  _212
REMARK   90  A    between atoms: _211  and  _214
REMARK   91  A    between atoms: _214  and  _215
REMARK   92  A    between atoms: _218  and  _220
REMARK   93  A    between atoms: _220  and  _221
REMARK   94  A    between atoms: _224  and  _226
REMARK   95  A    between atoms: _226  and  _227
REMARK   96  A    between atoms: _226  and  _229
REMARK   97  A    between atoms: _232  and  _234
REMARK   98  A    between atoms: _234  and  _235
REMARK   99  A    between atoms: _234  and  _237
REMARK  100  A    between atoms: _237  and  _238
REMARK  101  A    between atoms: _238  and  _239
REMARK  102  A    between atoms: _242  and  _244
REMARK  103  A    between atoms: _244  and  _245
REMARK  104  A    between atoms: _244  and  _247
REMARK  105  A    between atoms: _247  and  _248
REMARK  106  A    between atoms: _248  and  _249
REMARK  107  A    between atoms: _251  and  _253
REMARK  108  A    between atoms: _253  and  _254
REMARK  109  A    between atoms: _253  and  _256
REMARK  110  A    between atoms: _256  and  _257
REMARK  111  A    between atoms: _257  and  _258
REMARK  112  A    between atoms: _261  and  _263
REMARK  113  A    between atoms: _263  and  _264
REMARK  114  A    between atoms: _267  and  _269
REMARK  115  A    between atoms: _269  and  _270
REMARK  116  A    between atoms: _269  and  _272
REMARK  117  A    between atoms: _272  and  _273
REMARK  118  A    between atoms: _273  and  _274
REMARK  119  A    between atoms: _274  and  _275
REMARK  120  A    between atoms: _284  and  _286
REMARK  121  A    between atoms: _286  and  _287
REMARK  122  A    between atoms: _290  and  _292
REMARK  123  A    between atoms: _292  and  _293
REMARK  124  A    between atoms: _292  and  _295
REMARK  125  A    between atoms: _295  and  _296
REMARK  126  A    between atoms: _299  and  _301
REMARK  127  A    between atoms: _301  and  _302
REMARK  128  A    between atoms: _301  and  _304
REMARK  129  A    between atoms: _304  and  _305
REMARK  130  A    between atoms: _307  and  _309
REMARK  131  A    between atoms: _309  and  _310
REMARK  132  A    between atoms: _309  and  _312
REMARK  133  A    between atoms: _312  and  _313
REMARK  134  A    between atoms: _316  and  _318
REMARK  135  A    between atoms: _318  and  _319
REMARK  136  A    between atoms: _318  and  _321
REMARK  137  A    between atoms: _324  and  _326
REMARK  138  A    between atoms: _326  and  _327
REMARK  139  A    between atoms: _330  and  _332
REMARK  140  A    between atoms: _332  and  _333
REMARK  141  A    between atoms: _332  and  _335
REMARK  142  A    between atoms: _335  and  _336
REMARK  143  A    between atoms: _339  and  _341
REMARK  144  A    between atoms: _341  and  _342
REMARK  145  A    between atoms: _341  and  _344
REMARK  146  A    between atoms: _344  and  _345
REMARK  147  A    between atoms: _345  and  _346
REMARK  148  A    between atoms: _351  and  _353
REMARK  149  A    between atoms: _353  and  _354
REMARK  150  A    between atoms: _353  and  _356
REMARK  151  A    between atoms: _356  and  _357
REMARK  152  A    between atoms: _359  and  _361
REMARK  153  A    between atoms: _361  and  _362
REMARK  154  A    between atoms: _361  and  _364
REMARK  155  A    between atoms: _364  and  _365
REMARK  156  A    between atoms: _370  and  _372
REMARK  157  A    between atoms: _372  and  _373
REMARK  158  A    between atoms: _372  and  _375
REMARK  159  A    between atoms: _375  and  _376
REMARK  160  A    between atoms: _378  and  _380
REMARK  161  A    between atoms: _380  and  _381
REMARK  162  A    between atoms: _380  and  _383
REMARK  163  A    between atoms: _383  and  _384
REMARK  164  A    between atoms: _390  and  _392
REMARK  165  A    between atoms: _392  and  _393
REMARK  166  A    between atoms: _392  and  _395
REMARK  167  A    between atoms: _395  and  _396
REMARK  168  A    between atoms: _399  and  _401
REMARK  169  A    between atoms: _401  and  _402
REMARK  170  A    between atoms: _401  and  _404
REMARK  171  A    between atoms: _404  and  _405
REMARK  172  A    between atoms: _408  and  _410
REMARK  173  A    between atoms: _410  and  _411
REMARK  174  A    between atoms: _414  and  _416
REMARK  175  A    between atoms: _416  and  _417
REMARK  176  A    between atoms: _416  and  _419
REMARK  177  A    between atoms: _419  and  _420
REMARK  178  A    between atoms: _423  and  _425
REMARK  179  A    between atoms: _425  and  _426
REMARK  180  A    between atoms: _425  and  _428
REMARK  181  A    between atoms: _431  and  _433
REMARK  182  A    between atoms: _433  and  _434
REMARK  183  A    between atoms: _437  and  _439
REMARK  184  A    between atoms: _439  and  _440
REMARK  185  A    between atoms: _439  and  _442
REMARK  186  A    between atoms: _442  and  _443
REMARK  187  A    between atoms: _449  and  _451
REMARK  188  A    between atoms: _451  and  _452
REMARK  189  A    between atoms: _451  and  _454
REMARK  190  A    between atoms: _454  and  _455
REMARK  191  A    between atoms: _460  and  _461
REMARK  192  A    between atoms: _463  and  _465
REMARK  193  A    between atoms: _465  and  _466
REMARK  194  A    between atoms: _465  and  _468
REMARK  195  A    between atoms: _468  and  _469
REMARK  196  A    between atoms: _473  and  _474
REMARK                            x       y       z     vdW  Elec       q    Type
REMARK                         _______ _______ _______ _____ _____    ______ ____
ROOT
ATOM      1  CA  GLU A   1      66.923  69.997  20.285  0.00  0.00    +0.134 C 
ENDROOT
BRANCH   1   2
ATOM      2  N   GLU A   1      66.576  68.638  20.669  0.00  0.00    -0.239 NA
ATOM      3  H   GLU A   1      66.002  68.475  21.520  0.00  0.00    +0.142 HD
ENDBRANCH   1   2
BRANCH   1   4
ATOM      4  C   GLU A   1      68.341  70.452  20.593  0.00  0.00    +0.224 C 
ATOM      5  O   GLU A   1      68.808  71.413  19.998  0.00  0.00    -0.287 OA
ENDBRANCH   1   4
BRANCH   1   6
ATOM      6  CB  GLU A   1      65.915  70.967  20.903  0.00  0.00    +0.037 C 
BRANCH   6   7
ATOM      7  CG  GLU A   1      64.531  70.905  20.247  0.00  0.00    +0.116 C 
BRANCH   7   8
ATOM      8  CD  GLU A   1      63.527  71.817  20.930  0.00  0.00    +0.365 C 
ATOM      9  OE2 GLU A   1      63.691  72.059  22.136  0.00  0.00    -0.246 OA
ATOM     10  OE1 GLU A   1      62.574  72.287  20.268  0.00  0.00    -0.246 OA
ENDBRANCH   7   8
ENDBRANCH   6   7
ENDBRANCH   1   6
TORSDOF 5
REMARK  Name = ../refined-set-2016/1y6q/1y6q_pocket.pdb
REMARK  196 active torsions:
REMARK  status: ('A' for Active; 'I' for Inactive)
REMARK    1  A    between atoms: _1  and  _3
REMARK    2  A    between atoms: _3  and  _4
REMARK    3  A    between atoms: _6  and  _8
REMARK    4  A    between atoms: _8  and  _9
REMARK    5  A    between atoms: _12  and  _14
REMARK    6  A    between atoms: _14  and  _15
REMARK    7  A    between atoms: _14  and  _17
REMARK    8  A    between atoms: _17  and  _18
REMARK    9  A    between atoms: _18  and  _19
REMARK   10  A    between atoms: _21  and  _23
REMARK   11  A    between atoms: _23  and  _24
REMARK   12  A    between atoms: _23  and  _26
REMARK   13  A    between atoms: _26  and  _27
REMARK   14  A    between atoms: _27  and  _28
REMARK   15  A    between atoms: _31  and  _33
REMARK   16  A    between atoms: _33  and  _34
REMARK   17  A    between atoms: _33  and  _36
REMARK   18  A    between atoms: _36  and  _37
REMARK   19  A    between atoms: _39  and  _41
REMARK   20  A    between atoms: _41  and  _42
REMARK   21  A    between atoms: _44  and  _46
REMARK   22  A    between atoms: _46  and  _47
REMARK   23  A    between atoms: _46  and  _49
REMARK   24  A    between atoms: _49  and  _50
REMARK   25  A    between atoms: _53  and  _55
REMARK   26  A    between atoms: _55  and  _56
REMARK   27  A    between atoms: _58  and  _60
REMARK   28  A    between atoms: _60  and  _61
REMARK   29  A    between atoms: _60  and  _63
REMARK   30  A    between atoms: _63  and  _64
REMARK   31  A    between atoms: _69  and  _71
REMARK   32  A    between atoms: _71  and  _72
REMARK   33  A    between atoms: _71  and  _74
REMARK   34  A    between atoms: _74  and  _75
REMARK   35  A    between atoms: _78  and  _80
REMARK   36  A    between atoms: _80  and  _81
REMARK   37  A    between atoms: _83  and  _85
REMARK   38  A    between atoms: _85  and  _86
REMARK   39  A    between atoms: _85  and  _88
REMARK   40  A    between atoms: _88  and  _89
REMARK   41  A    between atoms: _91  and  _93
REMARK   42  A    between atoms: _93  and  _94
REMARK   43  A    between atoms: _97  and  _99
REMARK   44  A    between atoms: _99  and  _100
REMARK   45  A    between atoms: _102  and  _104
REMARK   46  A    between atoms: _104  and  _105
REMARK   47  A    between atoms: _107  and  _109
REMARK   48  A    between atoms: _109  and  _110
REMARK   49  A    between atoms: _109  and  _112
REMARK   50  A    between atoms: _112  and  _113
REMARK   51  A    between atoms: _116  and  _118
REMARK   52  A    between atoms: _118  and  _119
REMARK   53  A    between atoms: _118  and  _121
REMARK   54  A    between atoms: _121  and  _122
REMARK   55  A    between atoms: _127  and  _129
REMARK   56  A    between atoms: _129  and  _130
REMARK   57  A    between atoms: _129  and  _132
REMARK   58  A    between atoms: _135  and  _137
REMARK   59  A    between atoms: _137  and  _138
REMARK   60  A    between atoms: _137  and  _140
REMARK   61  A    between atoms: _140  and  _141
REMARK   62  A    between atoms: _143  and  _145
REMARK   63  A    between atoms: _145  and  _146
REMARK   64  A    between atoms: _148  and  _150
REMARK   65  A    between atoms: _150  and  _151
REMARK   66  A    between atoms: _150  and  _153
REMARK   67  A    between atoms: _153  and  _154
REMARK   68  A    between atoms: _157  and  _159
REMARK   69  A    between atoms: _159  and  _160
REMARK   70  A    between atoms: _163  and  _165
REMARK   71  A    between atoms: _165  and  _166
REMARK   72  A    between atoms: _165  and  _168
REMARK   73  A    between atoms: _168  and  _169
REMARK   74  A    between atoms: _175  and  _177
REMARK   75  A    between atoms: _177  and  _178
REMARK   76  A    between atoms: _177  and  _180
REMARK   77  A    between atoms: _180  and  _181
REMARK   78  A    between atoms: _184  and  _186
REMARK   79  A    between atoms: _186  and  _187
REMARK   80  A    between atoms: _186  and  _189
REMARK   81  A    between atoms: _189  and  _190
REMARK   82  A    between atoms: _195  and  _197
REMARK   83  A    between atoms: _197  and  _198
REMARK   84  A    between atoms: _200  and  _202
REMARK   85  A    between atoms: _202  and  _203
REMARK   86  A    between atoms: _202  and  _205
REMARK   87  A    between atoms: _205  and  _206
REMARK   88  A    between atoms: _209  and  _211
REMARK   89  A    between atoms: _211  and  _212
REMARK   90  A    between atoms: _211  and  _214
REMARK   91  A    between atoms: _214  and  _215
REMARK   92  A    between atoms: _218  and  _220
REMARK   93  A    between atoms: _220  and  _221
REMARK   94  A    between atoms: _224  and  _226
REMARK   95  A    between atoms: _226  and  _227
REMARK   96  A    between atoms: _226  and  _229
REMARK   97  A    between atoms: _232  and  _234
REMARK   98  A    between atoms: _234  and  _235
REMARK   99  A    between atoms: _234  and  _237
REMARK  100  A    between atoms: _237  and  _238
REMARK  101  A    between atoms: _238  and  _239
REMARK  102  A    between atoms: _242  and  _244
REMARK  103  A    between atoms: _244  and  _245
REMARK  104  A    between atoms: _244  and  _247
REMARK  105  A    between atoms: _247  and  _248
REMARK  106  A    between atoms: _248  and  _249
REMARK  107  A    between atoms: _251  and  _253
REMARK  108  A    between atoms: _253  and  _254
REMARK  109  A    between atoms: _253  and  _256
REMARK  110  A    between atoms: _256  and  _257
REMARK  111  A    between atoms: _257  and  _258
REMARK  112  A    between atoms: _261  and  _263
REMARK  113  A    between atoms: _263  and  _264
REMARK  114  A    between atoms: _267  and  _269
REMARK  115  A    between atoms: _269  and  _270
REMARK  116  A    between atoms: _269  and  _272
REMARK  117  A    between atoms: _272  and  _273
REMARK  118  A    between atoms: _273  and  _274
REMARK  119  A    between atoms: _274  and  _275
REMARK  120  A    between atoms: _284  and  _286
REMARK  121  A    between atoms: _286  and  _287
REMARK  122  A    between atoms: _290  and  _292
REMARK  123  A    between atoms: _292  and  _293
REMARK  124  A    between atoms: _292  and  _295
REMARK  125  A    between atoms: _295  and  _296
REMARK  126  A    between atoms: _299  and  _301
REMARK  127  A    between atoms: _301  and  _302
REMARK  128  A    between atoms: _301  and  _304
REMARK  129  A    between atoms: _304  and  _305
REMARK  130  A    between atoms: _307  and  _309
REMARK  131  A    between atoms: _309  and  _310
REMARK  132  A    between atoms: _309  and  _312
REMARK  133  A    between atoms: _312  and  _313
REMARK  134  A    between atoms: _316  and  _318
REMARK  135  A    between atoms: _318  and  _319
REMARK  136  A    between atoms: _318  and  _321
REMARK  137  A    between atoms: _324  and  _326
REMARK  138  A    between atoms: _326  and  _327
REMARK  139  A    between atoms: _330  and  _332
REMARK  140  A    between atoms: _332  and  _333
REMARK  141  A    between atoms: _332  and  _335
REMARK  142  A    between atoms: _335  and  _336
REMARK  143  A    between atoms: _339  and  _341
REMARK  144  A    between atoms: _341  and  _342
REMARK  145  A    between atoms: _341  and  _344
REMARK  146  A    between atoms: _344  and  _345
REMARK  147  A    between atoms: _345  and  _346
REMARK  148  A    between atoms: _351  and  _353
REMARK  149  A    between atoms: _353  and  _354
REMARK  150  A    between atoms: _353  and  _356
REMARK  151  A    between atoms: _356  and  _357
REMARK  152  A    between atoms: _359  and  _361
REMARK  153  A    between atoms: _361  and  _362
REMARK  154  A    between atoms: _361  and  _364
REMARK  155  A    between atoms: _364  and  _365
REMARK  156  A    between atoms: _370  and  _372
REMARK  157  A    between atoms: _372  and  _373
REMARK  158  A    between atoms: _372  and  _375
REMARK  159  A    between atoms: _375  and  _376
REMARK  160  A    between atoms: _378  and  _380
REMARK  161  A    between atoms: _380  and  _381
REMARK  162  A    between atoms: _380  and  _383
REMARK  163  A    between atoms: _383  and  _384
REMARK  164  A    between atoms: _390  and  _392
REMARK  165  A    between atoms: _392  and  _393
REMARK  166  A    between atoms: _392  and  _395
REMARK  167  A    between atoms: _395  and  _396
REMARK  168  A    between atoms: _399  and  _401
REMARK  169  A    between atoms: _401  and  _402
REMARK  170  A    between atoms: _401  and  _404
REMARK  171  A    between atoms: _404  and  _405
REMARK  172  A    between atoms: _408  and  _410
REMARK  173  A    between atoms: _410  and  _411
REMARK  174  A    between atoms: _414  and  _416
REMARK  175  A    between atoms: _416  and  _417
REMARK  176  A    between atoms: _416  and  _419
REMARK  177  A    between atoms: _419  and  _420
REMARK  178  A    between atoms: _423  and  _425
REMARK  179  A    between atoms: _425  and  _426
REMARK  180  A    between atoms: _425  and  _428
REMARK  181  A    between atoms: _431  and  _433
REMARK  182  A    between atoms: _433  and  _434
REMARK  183  A    between atoms: _437  and  _439
REMARK  184  A    between atoms: _439  and  _440
REMARK  185  A    between atoms: _439  and  _442
REMARK  186  A    between atoms: _442  and  _443
REMARK  187  A    between atoms: _449  and  _451
REMARK  188  A    between atoms: _451  and  _452
REMARK  189  A    between atoms: _451  and  _454
REMARK  190  A    between atoms: _454  and  _455
REMARK  191  A    between atoms: _460  and  _461
REMARK  192  A    between atoms: _463  and  _465
REMARK  193  A    between atoms: _465  and  _466
REMARK  194  A    between atoms: _465  and  _468
REMARK  195  A    between atoms: _468  and  _469
REMARK  196  A    between atoms: _473  and  _474
REMARK                            x       y       z     vdW  Elec       q    Type
REMARK                         _______ _______ _______ _____ _____    ______ ____
ROOT
ATOM      1  C   GLY A   2      61.897  71.585  29.215  0.00  0.00    +0.243 C 
ATOM      2  N   ILE A   3      60.676  71.088  29.119  0.00  0.00    -0.297 N 
ATOM      3  H   ILE A   3      60.473  70.158  29.538  0.00  0.00    +0.150 HD
ATOM      4  O   GLY A   2      62.180  72.717  28.823  0.00  0.00    -0.273 OA
ENDROOT
BRANCH   1   5
ATOM      5  CA  GLY A   2      62.946  70.695  29.864  0.00  0.00    +0.176 C 
BRANCH   5   8
ATOM      6  C   SER A   1      64.787  72.026  30.592  0.00  0.00    +0.241 C 
ATOM      7  O   SER A   1      64.344  72.018  31.739  0.00  0.00    -0.274 OA
ATOM      8  N   GLY A   2      64.195  71.382  29.600  0.00  0.00    -0.295 N 
ATOM      9  H   GLY A   2      64.617  71.369  28.650  0.00  0.00    +0.150 HD
BRANCH   6  10
ATOM     10  CA  SER A   1      66.038  72.814  30.264  0.00  0.00    +0.174 C 
BRANCH  10  11
ATOM     11  N   SER A   1      66.929  72.357  29.194  0.00  0.00    -0.236 NA
ATOM     12  H   SER A   1      66.714  72.585  28.202  0.00  0.00    +0.142 HD
ENDBRANCH  10  11
BRANCH  10  13
ATOM     13  CB  SER A   1      65.579  74.244  29.968  0.00  0.00    +0.163 C 
BRANCH  13  14
ATOM     14  OG  SER A   1      64.699  74.241  28.851  0.00  0.00    -0.380 OA
ATOM     15  H   SER A   1      63.911  73.677  29.055  0.00  0.00    +0.211 HD
ENDBRANCH  13  14
ENDBRANCH  10  13
ENDBRANCH   6  10
ENDBRANCH   5   8
ENDBRANCH   1   5
BRANCH   2  16
ATOM     16  CA  ILE A   3      59.612  71.807  28.443  0.00  0.00    +0.149 C 
BRANCH  16  17
ATOM     17  C   ILE A   3      58.771  72.719  29.316  0.00  0.00    +0.241 C 
ATOM     18  O   ILE A   3      58.481  72.392  30.474  0.00  0.00    -0.273 OA
ATOM     19  N   GLY A   4      58.390  73.874  28.761  0.00  0.00    -0.296 N 
ATOM     20  H   GLY A   4      58.703  74.115  27.799  0.00  0.00    +0.150 HD
BRANCH  19  21
ATOM     21  CA  GLY A   4      57.540  74.795  29.498  0.00  0.00    +0.163 C 
BRANCH  21  22
ATOM     22  C   GLY A   4      58.218  75.995  30.112  0.00  0.00    +0.229 C 
ATOM     23  O   GLY A   4      59.439  76.021  30.249  0.00  0.00    -0.286 OA
ENDBRANCH  21  22
ENDBRANCH  19  21
ENDBRANCH  16  17
BRANCH  16  24
ATOM     24  CB  ILE A   3      58.711  70.772  27.725  0.00  0.00    +0.027 C 
ATOM     25  CG2 ILE A   3      57.498  71.455  27.100  0.00  0.00    +0.002 C 
BRANCH  24  26
ATOM     26  CG1 ILE A   3      59.557  70.001  26.701  0.00  0.00    +0.002 C 
ATOM     27  CD1 ILE A   3      58.893  68.751  26.138  0.00  0.00    +0.000 C 
ENDBRANCH  24  26
ENDBRANCH  16  24
ENDBRANCH   2  16
TORSDOF 12
REMARK  Name = ../refined-set-2016/1y6q/1y6q_pocket.pdb
REMARK  196 active torsions:
REMARK  status: ('A' for Active; 'I' for Inactive)
REMARK    1  A    between atoms: _1  and  _3
REMARK    2  A    between atoms: _3  and  _4
REMARK    3  A    between atoms: _6  and  _8
REMARK    4  A    between atoms: _8  and  _9
REMARK    5  A    between atoms: _12  and  _14
REMARK    6  A    between atoms: _14  and  _15
REMARK    7  A    between atoms: _14  and  _17
REMARK    8  A    between atoms: _17  and  _18
REMARK    9  A    between atoms: _18  and  _19
REMARK   10  A    between atoms: _21  and  _23
REMARK   11  A    between atoms: _23  and  _24
REMARK   12  A    between atoms: _23  and  _26
REMARK   13  A    between atoms: _26  and  _27
REMARK   14  A    between atoms: _27  and  _28
REMARK   15  A    between atoms: _31  and  _33
REMARK   16  A    between atoms: _33  and  _34
REMARK   17  A    between atoms: _33  and  _36
REMARK   18  A    between atoms: _36  and  _37
REMARK   19  A    between atoms: _39  and  _41
REMARK   20  A    between atoms: _41  and  _42
REMARK   21  A    between atoms: _44  and  _46
REMARK   22  A    between atoms: _46  and  _47
REMARK   23  A    between atoms: _46  and  _49
REMARK   24  A    between atoms: _49  and  _50
REMARK   25  A    between atoms: _53  and  _55
REMARK   26  A    between atoms: _55  and  _56
REMARK   27  A    between atoms: _58  and  _60
REMARK   28  A    between atoms: _60  and  _61
REMARK   29  A    between atoms: _60  and  _63
REMARK   30  A    between atoms: _63  and  _64
REMARK   31  A    between atoms: _69  and  _71
REMARK   32  A    between atoms: _71  and  _72
REMARK   33  A    between atoms: _71  and  _74
REMARK   34  A    between atoms: _74  and  _75
REMARK   35  A    between atoms: _78  and  _80
REMARK   36  A    between atoms: _80  and  _81
REMARK   37  A    between atoms: _83  and  _85
REMARK   38  A    between atoms: _85  and  _86
REMARK   39  A    between atoms: _85  and  _88
REMARK   40  A    between atoms: _88  and  _89
REMARK   41  A    between atoms: _91  and  _93
REMARK   42  A    between atoms: _93  and  _94
REMARK   43  A    between atoms: _97  and  _99
REMARK   44  A    between atoms: _99  and  _100
REMARK   45  A    between atoms: _102  and  _104
REMARK   46  A    between atoms: _104  and  _105
REMARK   47  A    between atoms: _107  and  _109
REMARK   48  A    between atoms: _109  and  _110
REMARK   49  A    between atoms: _109  and  _112
REMARK   50  A    between atoms: _112  and  _113
REMARK   51  A    between atoms: _116  and  _118
REMARK   52  A    between atoms: _118  and  _119
REMARK   53  A    between atoms: _118  and  _121
REMARK   54  A    between atoms: _121  and  _122
REMARK   55  A    between atoms: _127  and  _129
REMARK   56  A    between atoms: _129  and  _130
REMARK   57  A    between atoms: _129  and  _132
REMARK   58  A    between atoms: _135  and  _137
REMARK   59  A    between atoms: _137  and  _138
REMARK   60  A    between atoms: _137  and  _140
REMARK   61  A    between atoms: _140  and  _141
REMARK   62  A    between atoms: _143  and  _145
REMARK   63  A    between atoms: _145  and  _146
REMARK   64  A    between atoms: _148  and  _150
REMARK   65  A    between atoms: _150  and  _151
REMARK   66  A    between atoms: _150  and  _153
REMARK   67  A    between atoms: _153  and  _154
REMARK   68  A    between atoms: _157  and  _159
REMARK   69  A    between atoms: _159  and  _160
REMARK   70  A    between atoms: _163  and  _165
REMARK   71  A    between atoms: _165  and  _166
REMARK   72  A    between atoms: _165  and  _168
REMARK   73  A    between atoms: _168  and  _169
REMARK   74  A    between atoms: _175  and  _177
REMARK   75  A    between atoms: _177  and  _178
REMARK   76  A    between atoms: _177  and  _180
REMARK   77  A    between atoms: _180  and  _181
REMARK   78  A    between atoms: _184  and  _186
REMARK   79  A    between atoms: _186  and  _187
REMARK   80  A    between atoms: _186  and  _189
REMARK   81  A    between atoms: _189  and  _190
REMARK   82  A    between atoms: _195  and  _197
REMARK   83  A    between atoms: _197  and  _198
REMARK   84  A    between atoms: _200  and  _202
REMARK   85  A    between atoms: _202  and  _203
REMARK   86  A    between atoms: _202  and  _205
REMARK   87  A    between atoms: _205  and  _206
REMARK   88  A    between atoms: _209  and  _211
REMARK   89  A    between atoms: _211  and  _212
REMARK   90  A    between atoms: _211  and  _214
REMARK   91  A    between atoms: _214  and  _215
REMARK   92  A    between atoms: _218  and  _220
REMARK   93  A    between atoms: _220  and  _221
REMARK   94  A    between atoms: _224  and  _226
REMARK   95  A    between atoms: _226  and  _227
REMARK   96  A    between atoms: _226  and  _229
REMARK   97  A    between atoms: _232  and  _234
REMARK   98  A    between atoms: _234  and  _235
REMARK   99  A    between atoms: _234  and  _237
REMARK  100  A    between atoms: _237  and  _238
REMARK  101  A    between atoms: _238  and  _239
REMARK  102  A    between atoms: _242  and  _244
REMARK  103  A    between atoms: _244  and  _245
REMARK  104  A    between atoms: _244  and  _247
REMARK  105  A    between atoms: _247  and  _248
REMARK  106  A    between atoms: _248  and  _249
REMARK  107  A    between atoms: _251  and  _253
REMARK  108  A    between atoms: _253  and  _254
REMARK  109  A    between atoms: _253  and  _256
REMARK  110  A    between atoms: _256  and  _257
REMARK  111  A    between atoms: _257  and  _258
REMARK  112  A    between atoms: _261  and  _263
REMARK  113  A    between atoms: _263  and  _264
REMARK  114  A    between atoms: _267  and  _269
REMARK  115  A    between atoms: _269  and  _270
REMARK  116  A    between atoms: _269  and  _272
REMARK  117  A    between atoms: _272  and  _273
REMARK  118  A    between atoms: _273  and  _274
REMARK  119  A    between atoms: _274  and  _275
REMARK  120  A    between atoms: _284  and  _286
REMARK  121  A    between atoms: _286  and  _287
REMARK  122  A    between atoms: _290  and  _292
REMARK  123  A    between atoms: _292  and  _293
REMARK  124  A    between atoms: _292  and  _295
REMARK  125  A    between atoms: _295  and  _296
REMARK  126  A    between atoms: _299  and  _301
REMARK  127  A    between atoms: _301  and  _302
REMARK  128  A    between atoms: _301  and  _304
REMARK  129  A    between atoms: _304  and  _305
REMARK  130  A    between atoms: _307  and  _309
REMARK  131  A    between atoms: _309  and  _310
REMARK  132  A    between atoms: _309  and  _312
REMARK  133  A    between atoms: _312  and  _313
REMARK  134  A    between atoms: _316  and  _318
REMARK  135  A    between atoms: _318  and  _319
REMARK  136  A    between atoms: _318  and  _321
REMARK  137  A    between atoms: _324  and  _326
REMARK  138  A    between atoms: _326  and  _327
REMARK  139  A    between atoms: _330  and  _332
REMARK  140  A    between atoms: _332  and  _333
REMARK  141  A    between atoms: _332  and  _335
REMARK  142  A    between atoms: _335  and  _336
REMARK  143  A    between atoms: _339  and  _341
REMARK  144  A    between atoms: _341  and  _342
REMARK  145  A    between atoms: _341  and  _344
REMARK  146  A    between atoms: _344  and  _345
REMARK  147  A    between atoms: _345  and  _346
REMARK  148  A    between atoms: _351  and  _353
REMARK  149  A    between atoms: _353  and  _354
REMARK  150  A    between atoms: _353  and  _356
REMARK  151  A    between atoms: _356  and  _357
REMARK  152  A    between atoms: _359  and  _361
REMARK  153  A    between atoms: _361  and  _362
REMARK  154  A    between atoms: _361  and  _364
REMARK  155  A    between atoms: _364  and  _365
REMARK  156  A    between atoms: _370  and  _372
REMARK  157  A    between atoms: _372  and  _373
REMARK  158  A    between atoms: _372  and  _375
REMARK  159  A    between atoms: _375  and  _376
REMARK  160  A    between atoms: _378  and  _380
REMARK  161  A    between atoms: _380  and  _381
REMARK  162  A    between atoms: _380  and  _383
REMARK  163  A    between atoms: _383  and  _384
REMARK  164  A    between atoms: _390  and  _392
REMARK  165  A    between atoms: _392  and  _393
REMARK  166  A    between atoms: _392  and  _395
REMARK  167  A    between atoms: _395  and  _396
REMARK  168  A    between atoms: _399  and  _401
REMARK  169  A    between atoms: _401  and  _402
REMARK  170  A    between atoms: _401  and  _404
REMARK  171  A    between atoms: _404  and  _405
REMARK  172  A    between atoms: _408  and  _410
REMARK  173  A    between atoms: _410  and  _411
REMARK  174  A    between atoms: _414  and  _416
REMARK  175  A    between atoms: _416  and  _417
REMARK  176  A    between atoms: _416  and  _419
REMARK  177  A    between atoms: _419  and  _420
REMARK  178  A    between atoms: _423  and  _425
REMARK  179  A    between atoms: _425  and  _426
REMARK  180  A    between atoms: _425  and  _428
REMARK  181  A    between atoms: _431  and  _433
REMARK  182  A    between atoms: _433  and  _434
REMARK  183  A    between atoms: _437  and  _439
REMARK  184  A    between atoms: _439  and  _440
REMARK  185  A    between atoms: _439  and  _442
REMARK  186  A    between atoms: _442  and  _443
REMARK  187  A    between atoms: _449  and  _451
REMARK  188  A    between atoms: _451  and  _452
REMARK  189  A    between atoms: _451  and  _454
REMARK  190  A    between atoms: _454  and  _455
REMARK  191  A    between atoms: _460  and  _461
REMARK  192  A    between atoms: _463  and  _465
REMARK  193  A    between atoms: _465  and  _466
REMARK  194  A    between atoms: _465  and  _468
REMARK  195  A    between atoms: _468  and  _469
REMARK  196  A    between atoms: _473  and  _474
REMARK                            x       y       z     vdW  Elec       q    Type
REMARK                         _______ _______ _______ _____ _____    ______ ____
ROOT
ATOM      1  CA  SER A   4      61.736  74.167  17.131  0.00  0.00    +0.178 C 
ENDROOT
BRANCH   1   3
ATOM      2  C   GLY A   3      63.948  74.745  17.993  0.00  0.00    +0.243 C 
ATOM      3  N   SER A   4      62.796  74.086  18.140  0.00  0.00    -0.295 N 
ATOM      4  H   SER A   4      62.648  73.503  18.988  0.00  0.00    +0.150 HD
ATOM      5  O   GLY A   3      64.201  75.453  17.014  0.00  0.00    -0.273 OA
BRANCH   2   6
ATOM      6  CA  GLY A   3      64.968  74.587  19.097  0.00  0.00    +0.176 C 
BRANCH   6   9
ATOM      7  C   THR A   2      66.308  76.294  20.166  0.00  0.00    +0.243 C 
ATOM      8  O   THR A   2      65.717  76.132  21.244  0.00  0.00    -0.273 OA
ATOM      9  N   GLY A   3      66.013  75.600  19.068  0.00  0.00    -0.295 N 
ATOM     10  H   GLY A   3      66.532  75.783  18.185  0.00  0.00    +0.150 HD
BRANCH   7  11
ATOM     11  CA  THR A   2      67.433  77.331  20.028  0.00  0.00    +0.176 C 
BRANCH  11  13
ATOM     12  C   ASN A   1      67.394  79.419  21.266  0.00  0.00    +0.239 C 
ATOM     13  N   THR A   2      67.601  78.106  21.251  0.00  0.00    -0.295 N 
ATOM     14  H   THR A   2      67.888  77.624  22.127  0.00  0.00    +0.150 HD
ATOM     15  O   ASN A   1      67.037  80.053  20.274  0.00  0.00    -0.274 OA
BRANCH  12  16
ATOM     16  CA  ASN A   1      67.626  80.126  22.595  0.00  0.00    +0.154 C 
BRANCH  16  17
ATOM     17  N   ASN A   1      68.619  81.176  22.371  0.00  0.00    -0.238 NA
ATOM     18  H   ASN A   1      68.338  82.077  21.933  0.00  0.00    +0.142 HD
ENDBRANCH  16  17
BRANCH  16  19
ATOM     19  CB  ASN A   1      66.316  80.722  23.119  0.00  0.00    +0.111 C 
BRANCH  19  20
ATOM     20  CG  ASN A   1      65.242  79.658  23.401  0.00  0.00    +0.221 C 
ATOM     21  ND2 ASN A   1      65.652  78.473  23.840  0.00  0.00    -0.329 N 
ATOM     22 HD21 ASN A   1      64.957  77.731  24.060  0.00  0.00    +0.145 HD
ATOM     23 HD22 ASN A   1      66.668  78.287  23.964  0.00  0.00    +0.145 HD
ATOM     24  OD1 ASN A   1      64.059  79.924  23.239  0.00  0.00    -0.275 OA
ENDBRANCH  19  20
ENDBRANCH  16  19
ENDBRANCH  12  16
ENDBRANCH  11  13
BRANCH  11  25
ATOM     25  CB  THR A   2      68.769  76.611  19.650  0.00  0.00    +0.137 C 
ATOM     26  CG2 THR A   2      69.101  75.531  20.646  0.00  0.00    +0.034 C 
BRANCH  25  27
ATOM     27  OG1 THR A   2      68.643  76.009  18.357  0.00  0.00    -0.382 OA
ATOM     28  HG1 THR A   2      67.906  75.348  18.372  0.00  0.00    +0.210 HD
ENDBRANCH  25  27
ENDBRANCH  11  25
ENDBRANCH   7  11
ENDBRANCH   6   9
ENDBRANCH   2   6
ENDBRANCH   1   3
BRANCH   1  29
ATOM     29  C   SER A   4      60.699  75.224  17.460  0.00  0.00    +0.243 C 
ATOM     30  O   SER A   4      60.804  75.914  18.467  0.00  0.00    -0.273 OA
ATOM     31  N   ALA A   5      59.689  75.333  16.598  0.00  0.00    -0.297 N 
ATOM     32  H   ALA A   5      59.663  74.705  15.769  0.00  0.00    +0.150 HD
BRANCH  31  33
ATOM     33  CA  ALA A   5      58.620  76.305  16.782  0.00  0.00    +0.149 C 
ATOM     34  CB  ALA A   5      59.177  77.733  16.613  0.00  0.00    +0.031 C 
BRANCH  33  35
ATOM     35  C   ALA A   5      57.479  76.079  15.796  0.00  0.00    +0.241 C 
ATOM     36  N   GLY A   6      56.292  76.555  16.165  0.00  0.00    -0.295 N 
ATOM     37  H   GLY A   6      56.185  77.004  17.097  0.00  0.00    +0.150 HD
ATOM     38  O   ALA A   5      57.665  75.482  14.731  0.00  0.00    -0.273 OA
BRANCH  36  39
ATOM     39  CA  GLY A   6      55.145  76.453  15.279  0.00  0.00    +0.176 C 
BRANCH  39  40
ATOM     40  C   GLY A   6      55.170  77.735  14.461  0.00  0.00    +0.243 C 
ATOM     41  O   GLY A   6      55.155  78.816  15.047  0.00  0.00    -0.273 OA
ATOM     42  N   GLY A   7      55.229  77.633  13.131  0.00  0.00    -0.295 N 
ATOM     43  H   GLY A   7      55.247  76.693  12.686  0.00  0.00    +0.150 HD
BRANCH  42  44
ATOM     44  CA  GLY A   7      55.268  78.833  12.296  0.00  0.00    +0.176 C 
BRANCH  44  45
ATOM     45  C   GLY A   7      53.910  79.506  12.176  0.00  0.00    +0.243 C 
ATOM     46  N   LEU A   8      53.873  80.837  12.275  0.00  0.00    -0.298 N 
ATOM     47  H   LEU A   8      54.763  81.354  12.428  0.00  0.00    +0.150 HD
ATOM     48  O   GLY A   7      52.901  78.820  12.014  0.00  0.00    -0.273 OA
BRANCH  46  49
ATOM     49  CA  LEU A   8      52.626  81.594  12.176  0.00  0.00    +0.137 C 
BRANCH  49  50
ATOM     50  C   LEU A   8      52.609  82.560  10.982  0.00  0.00    +0.227 C 
ATOM     51  O   LEU A   8      51.556  82.834  10.419  0.00  0.00    -0.286 OA
ENDBRANCH  49  50
BRANCH  49  52
ATOM     52  CB  LEU A   8      52.364  82.365  13.476  0.00  0.00    +0.028 C 
BRANCH  52  53
ATOM     53  CG  LEU A   8      52.053  81.540  14.732  0.00  0.00    +0.002 C 
ATOM     54  CD2 LEU A   8      51.953  82.446  15.962  0.00  0.00    +0.000 C 
ATOM     55  CD1 LEU A   8      50.751  80.774  14.525  0.00  0.00    +0.000 C 
ENDBRANCH  52  53
ENDBRANCH  49  52
ENDBRANCH  46  49
ENDBRANCH  44  45
ENDBRANCH  42  44
ENDBRANCH  39  40
ENDBRANCH  36  39
ENDBRANCH  33  35
ENDBRANCH  31  33
ENDBRANCH   1  29
BRANCH   1  56
ATOM     56  CB  SER A   4      61.029  72.824  16.980  0.00  0.00    +0.166 C 
BRANCH  56  57
ATOM     57  OG  SER A   4      60.519  72.405  18.221  0.00  0.00    -0.380 OA
ATOM     58  H   SER A   4      61.263  72.311  18.867  0.00  0.00    +0.211 HD
ENDBRANCH  56  57
ENDBRANCH   1  56
TORSDOF 24
REMARK  Name = ../refined-set-2016/1y6q/1y6q_pocket.pdb
REMARK  196 active torsions:
REMARK  status: ('A' for Active; 'I' for Inactive)
REMARK    1  A    between atoms: _1  and  _3
REMARK    2  A    between atoms: _3  and  _4
REMARK    3  A    between atoms: _6  and  _8
REMARK    4  A    between atoms: _8  and  _9
REMARK    5  A    between atoms: _12  and  _14
REMARK    6  A    between atoms: _14  and  _15
REMARK    7  A    between atoms: _14  and  _17
REMARK    8  A    between atoms: _17  and  _18
REMARK    9  A    between atoms: _18  and  _19
REMARK   10  A    between atoms: _21  and  _23
REMARK   11  A    between atoms: _23  and  _24
REMARK   12  A    between atoms: _23  and  _26
REMARK   13  A    between atoms: _26  and  _27
REMARK   14  A    between atoms: _27  and  _28
REMARK   15  A    between atoms: _31  and  _33
REMARK   16  A    between atoms: _33  and  _34
REMARK   17  A    between atoms: _33  and  _36
REMARK   18  A    between atoms: _36  and  _37
REMARK   19  A    between atoms: _39  and  _41
REMARK   20  A    between atoms: _41  and  _42
REMARK   21  A    between atoms: _44  and  _46
REMARK   22  A    between atoms: _46  and  _47
REMARK   23  A    between atoms: _46  and  _49
REMARK   24  A    between atoms: _49  and  _50
REMARK   25  A    between atoms: _53  and  _55
REMARK   26  A    between atoms: _55  and  _56
REMARK   27  A    between atoms: _58  and  _60
REMARK   28  A    between atoms: _60  and  _61
REMARK   29  A    between atoms: _60  and  _63
REMARK   30  A    between atoms: _63  and  _64
REMARK   31  A    between atoms: _69  and  _71
REMARK   32  A    between atoms: _71  and  _72
REMARK   33  A    between atoms: _71  and  _74
REMARK   34  A    between atoms: _74  and  _75
REMARK   35  A    between atoms: _78  and  _80
REMARK   36  A    between atoms: _80  and  _81
REMARK   37  A    between atoms: _83  and  _85
REMARK   38  A    between atoms: _85  and  _86
REMARK   39  A    between atoms: _85  and  _88
REMARK   40  A    between atoms: _88  and  _89
REMARK   41  A    between atoms: _91  and  _93
REMARK   42  A    between atoms: _93  and  _94
REMARK   43  A    between atoms: _97  and  _99
REMARK   44  A    between atoms: _99  and  _100
REMARK   45  A    between atoms: _102  and  _104
REMARK   46  A    between atoms: _104  and  _105
REMARK   47  A    between atoms: _107  and  _109
REMARK   48  A    between atoms: _109  and  _110
REMARK   49  A    between atoms: _109  and  _112
REMARK   50  A    between atoms: _112  and  _113
REMARK   51  A    between atoms: _116  and  _118
REMARK   52  A    between atoms: _118  and  _119
REMARK   53  A    between atoms: _118  and  _121
REMARK   54  A    between atoms: _121  and  _122
REMARK   55  A    between atoms: _127  and  _129
REMARK   56  A    between atoms: _129  and  _130
REMARK   57  A    between atoms: _129  and  _132
REMARK   58  A    between atoms: _135  and  _137
REMARK   59  A    between atoms: _137  and  _138
REMARK   60  A    between atoms: _137  and  _140
REMARK   61  A    between atoms: _140  and  _141
REMARK   62  A    between atoms: _143  and  _145
REMARK   63  A    between atoms: _145  and  _146
REMARK   64  A    between atoms: _148  and  _150
REMARK   65  A    between atoms: _150  and  _151
REMARK   66  A    between atoms: _150  and  _153
REMARK   67  A    between atoms: _153  and  _154
REMARK   68  A    between atoms: _157  and  _159
REMARK   69  A    between atoms: _159  and  _160
REMARK   70  A    between atoms: _163  and  _165
REMARK   71  A    between atoms: _165  and  _166
REMARK   72  A    between atoms: _165  and  _168
REMARK   73  A    between atoms: _168  and  _169
REMARK   74  A    between atoms: _175  and  _177
REMARK   75  A    between atoms: _177  and  _178
REMARK   76  A    between atoms: _177  and  _180
REMARK   77  A    between atoms: _180  and  _181
REMARK   78  A    between atoms: _184  and  _186
REMARK   79  A    between atoms: _186  and  _187
REMARK   80  A    between atoms: _186  and  _189
REMARK   81  A    between atoms: _189  and  _190
REMARK   82  A    between atoms: _195  and  _197
REMARK   83  A    between atoms: _197  and  _198
REMARK   84  A    between atoms: _200  and  _202
REMARK   85  A    between atoms: _202  and  _203
REMARK   86  A    between atoms: _202  and  _205
REMARK   87  A    between atoms: _205  and  _206
REMARK   88  A    between atoms: _209  and  _211
REMARK   89  A    between atoms: _211  and  _212
REMARK   90  A    between atoms: _211  and  _214
REMARK   91  A    between atoms: _214  and  _215
REMARK   92  A    between atoms: _218  and  _220
REMARK   93  A    between atoms: _220  and  _221
REMARK   94  A    between atoms: _224  and  _226
REMARK   95  A    between atoms: _226  and  _227
REMARK   96  A    between atoms: _226  and  _229
REMARK   97  A    between atoms: _232  and  _234
REMARK   98  A    between atoms: _234  and  _235
REMARK   99  A    between atoms: _234  and  _237
REMARK  100  A    between atoms: _237  and  _238
REMARK  101  A    between atoms: _238  and  _239
REMARK  102  A    between atoms: _242  and  _244
REMARK  103  A    between atoms: _244  and  _245
REMARK  104  A    between atoms: _244  and  _247
REMARK  105  A    between atoms: _247  and  _248
REMARK  106  A    between atoms: _248  and  _249
REMARK  107  A    between atoms: _251  and  _253
REMARK  108  A    between atoms: _253  and  _254
REMARK  109  A    between atoms: _253  and  _256
REMARK  110  A    between atoms: _256  and  _257
REMARK  111  A    between atoms: _257  and  _258
REMARK  112  A    between atoms: _261  and  _263
REMARK  113  A    between atoms: _263  and  _264
REMARK  114  A    between atoms: _267  and  _269
REMARK  115  A    between atoms: _269  and  _270
REMARK  116  A    between atoms: _269  and  _272
REMARK  117  A    between atoms: _272  and  _273
REMARK  118  A    between atoms: _273  and  _274
REMARK  119  A    between atoms: _274  and  _275
REMARK  120  A    between atoms: _284  and  _286
REMARK  121  A    between atoms: _286  and  _287
REMARK  122  A    between atoms: _290  and  _292
REMARK  123  A    between atoms: _292  and  _293
REMARK  124  A    between atoms: _292  and  _295
REMARK  125  A    between atoms: _295  and  _296
REMARK  126  A    between atoms: _299  and  _301
REMARK  127  A    between atoms: _301  and  _302
REMARK  128  A    between atoms: _301  and  _304
REMARK  129  A    between atoms: _304  and  _305
REMARK  130  A    between atoms: _307  and  _309
REMARK  131  A    between atoms: _309  and  _310
REMARK  132  A    between atoms: _309  and  _312
REMARK  133  A    between atoms: _312  and  _313
REMARK  134  A    between atoms: _316  and  _318
REMARK  135  A    between atoms: _318  and  _319
REMARK  136  A    between atoms: _318  and  _321
REMARK  137  A    between atoms: _324  and  _326
REMARK  138  A    between atoms: _326  and  _327
REMARK  139  A    between atoms: _330  and  _332
REMARK  140  A    between atoms: _332  and  _333
REMARK  141  A    between atoms: _332  and  _335
REMARK  142  A    between atoms: _335  and  _336
REMARK  143  A    between atoms: _339  and  _341
REMARK  144  A    between atoms: _341  and  _342
REMARK  145  A    between atoms: _341  and  _344
REMARK  146  A    between atoms: _344  and  _345
REMARK  147  A    between atoms: _345  and  _346
REMARK  148  A    between atoms: _351  and  _353
REMARK  149  A    between atoms: _353  and  _354
REMARK  150  A    between atoms: _353  and  _356
REMARK  151  A    between atoms: _356  and  _357
REMARK  152  A    between atoms: _359  and  _361
REMARK  153  A    between atoms: _361  and  _362
REMARK  154  A    between atoms: _361  and  _364
REMARK  155  A    between atoms: _364  and  _365
REMARK  156  A    between atoms: _370  and  _372
REMARK  157  A    between atoms: _372  and  _373
REMARK  158  A    between atoms: _372  and  _375
REMARK  159  A    between atoms: _375  and  _376
REMARK  160  A    between atoms: _378  and  _380
REMARK  161  A    between atoms: _380  and  _381
REMARK  162  A    between atoms: _380  and  _383
REMARK  163  A    between atoms: _383  and  _384
REMARK  164  A    between atoms: _390  and  _392
REMARK  165  A    between atoms: _392  and  _393
REMARK  166  A    between atoms: _392  and  _395
REMARK  167  A    between atoms: _395  and  _396
REMARK  168  A    between atoms: _399  and  _401
REMARK  169  A    between atoms: _401  and  _402
REMARK  170  A    between atoms: _401  and  _404
REMARK  171  A    between atoms: _404  and  _405
REMARK  172  A    between atoms: _408  and  _410
REMARK  173  A    between atoms: _410  and  _411
REMARK  174  A    between atoms: _414  and  _416
REMARK  175  A    between atoms: _416  and  _417
REMARK  176  A    between atoms: _416  and  _419
REMARK  177  A    between atoms: _419  and  _420
REMARK  178  A    between atoms: _423  and  _425
REMARK  179  A    between atoms: _425  and  _426
REMARK  180  A    between atoms: _425  and  _428
REMARK  181  A    between atoms: _431  and  _433
REMARK  182  A    between atoms: _433  and  _434
REMARK  183  A    between atoms: _437  and  _439
REMARK  184  A    between atoms: _439  and  _440
REMARK  185  A    between atoms: _439  and  _442
REMARK  186  A    between atoms: _442  and  _443
REMARK  187  A    between atoms: _449  and  _451
REMARK  188  A    between atoms: _451  and  _452
REMARK  189  A    between atoms: _451  and  _454
REMARK  190  A    between atoms: _454  and  _455
REMARK  191  A    between atoms: _460  and  _461
REMARK  192  A    between atoms: _463  and  _465
REMARK  193  A    between atoms: _465  and  _466
REMARK  194  A    between atoms: _465  and  _468
REMARK  195  A    between atoms: _468  and  _469
REMARK  196  A    between atoms: _473  and  _474
REMARK                            x       y       z     vdW  Elec       q    Type
REMARK                         _______ _______ _______ _____ _____    ______ ____
ROOT
ATOM      1  CB  HIS A   1      50.328  84.034  23.371  0.00  0.00    +0.072 C 
ENDROOT
BRANCH   1   2
ATOM      2  CG  HIS A   1      50.427  82.543  23.473  0.00  0.00    +0.082 A 
ATOM      3  ND1 HIS A   1      49.427  81.764  24.015  0.00  0.00    -0.227 NA
ATOM      4  CE1 HIS A   1      49.792  80.494  23.973  0.00  0.00    +0.199 A 
ATOM      5  NE2 HIS A   1      50.992  80.422  23.422  0.00  0.00    -0.221 NA
ATOM      6  CD2 HIS A   1      51.412  81.689  23.100  0.00  0.00    +0.115 A 
ENDBRANCH   1   2
BRANCH   1   7
ATOM      7  CA  HIS A   1      50.436  84.779  24.726  0.00  0.00    +0.139 C 
BRANCH   7   8
ATOM      8  N   HIS A   1      51.760  84.647  25.340  0.00  0.00    -0.239 NA
ATOM      9  H   HIS A   1      52.320  83.777  25.234  0.00  0.00    +0.142 HD
ENDBRANCH   7   8
BRANCH   7  10
ATOM     10  C   HIS A   1      49.382  84.281  25.711  0.00  0.00    +0.224 C 
ATOM     11  O   HIS A   1      48.190  84.387  25.452  0.00  0.00    -0.287 OA
ENDBRANCH   7  10
ENDBRANCH   1   7
TORSDOF 4
REMARK  Name = ../refined-set-2016/1y6q/1y6q_pocket.pdb
REMARK  196 active torsions:
REMARK  status: ('A' for Active; 'I' for Inactive)
REMARK    1  A    between atoms: _1  and  _3
REMARK    2  A    between atoms: _3  and  _4
REMARK    3  A    between atoms: _6  and  _8
REMARK    4  A    between atoms: _8  and  _9
REMARK    5  A    between atoms: _12  and  _14
REMARK    6  A    between atoms: _14  and  _15
REMARK    7  A    between atoms: _14  and  _17
REMARK    8  A    between atoms: _17  and  _18
REMARK    9  A    between atoms: _18  and  _19
REMARK   10  A    between atoms: _21  and  _23
REMARK   11  A    between atoms: _23  and  _24
REMARK   12  A    between atoms: _23  and  _26
REMARK   13  A    between atoms: _26  and  _27
REMARK   14  A    between atoms: _27  and  _28
REMARK   15  A    between atoms: _31  and  _33
REMARK   16  A    between atoms: _33  and  _34
REMARK   17  A    between atoms: _33  and  _36
REMARK   18  A    between atoms: _36  and  _37
REMARK   19  A    between atoms: _39  and  _41
REMARK   20  A    between atoms: _41  and  _42
REMARK   21  A    between atoms: _44  and  _46
REMARK   22  A    between atoms: _46  and  _47
REMARK   23  A    between atoms: _46  and  _49
REMARK   24  A    between atoms: _49  and  _50
REMARK   25  A    between atoms: _53  and  _55
REMARK   26  A    between atoms: _55  and  _56
REMARK   27  A    between atoms: _58  and  _60
REMARK   28  A    between atoms: _60  and  _61
REMARK   29  A    between atoms: _60  and  _63
REMARK   30  A    between atoms: _63  and  _64
REMARK   31  A    between atoms: _69  and  _71
REMARK   32  A    between atoms: _71  and  _72
REMARK   33  A    between atoms: _71  and  _74
REMARK   34  A    between atoms: _74  and  _75
REMARK   35  A    between atoms: _78  and  _80
REMARK   36  A    between atoms: _80  and  _81
REMARK   37  A    between atoms: _83  and  _85
REMARK   38  A    between atoms: _85  and  _86
REMARK   39  A    between atoms: _85  and  _88
REMARK   40  A    between atoms: _88  and  _89
REMARK   41  A    between atoms: _91  and  _93
REMARK   42  A    between atoms: _93  and  _94
REMARK   43  A    between atoms: _97  and  _99
REMARK   44  A    between atoms: _99  and  _100
REMARK   45  A    between atoms: _102  and  _104
REMARK   46  A    between atoms: _104  and  _105
REMARK   47  A    between atoms: _107  and  _109
REMARK   48  A    between atoms: _109  and  _110
REMARK   49  A    between atoms: _109  and  _112
REMARK   50  A    between atoms: _112  and  _113
REMARK   51  A    between atoms: _116  and  _118
REMARK   52  A    between atoms: _118  and  _119
REMARK   53  A    between atoms: _118  and  _121
REMARK   54  A    between atoms: _121  and  _122
REMARK   55  A    between atoms: _127  and  _129
REMARK   56  A    between atoms: _129  and  _130
REMARK   57  A    between atoms: _129  and  _132
REMARK   58  A    between atoms: _135  and  _137
REMARK   59  A    between atoms: _137  and  _138
REMARK   60  A    between atoms: _137  and  _140
REMARK   61  A    between atoms: _140  and  _141
REMARK   62  A    between atoms: _143  and  _145
REMARK   63  A    between atoms: _145  and  _146
REMARK   64  A    between atoms: _148  and  _150
REMARK   65  A    between atoms: _150  and  _151
REMARK   66  A    between atoms: _150  and  _153
REMARK   67  A    between atoms: _153  and  _154
REMARK   68  A    between atoms: _157  and  _159
REMARK   69  A    between atoms: _159  and  _160
REMARK   70  A    between atoms: _163  and  _165
REMARK   71  A    between atoms: _165  and  _166
REMARK   72  A    between atoms: _165  and  _168
REMARK   73  A    between atoms: _168  and  _169
REMARK   74  A    between atoms: _175  and  _177
REMARK   75  A    between atoms: _177  and  _178
REMARK   76  A    between atoms: _177  and  _180
REMARK   77  A    between atoms: _180  and  _181
REMARK   78  A    between atoms: _184  and  _186
REMARK   79  A    between atoms: _186  and  _187
REMARK   80  A    between atoms: _186  and  _189
REMARK   81  A    between atoms: _189  and  _190
REMARK   82  A    between atoms: _195  and  _197
REMARK   83  A    between atoms: _197  and  _198
REMARK   84  A    between atoms: _200  and  _202
REMARK   85  A    between atoms: _202  and  _203
REMARK   86  A    between atoms: _202  and  _205
REMARK   87  A    between atoms: _205  and  _206
REMARK   88  A    between atoms: _209  and  _211
REMARK   89  A    between atoms: _211  and  _212
REMARK   90  A    between atoms: _211  and  _214
REMARK   91  A    between atoms: _214  and  _215
REMARK   92  A    between atoms: _218  and  _220
REMARK   93  A    between atoms: _220  and  _221
REMARK   94  A    between atoms: _224  and  _226
REMARK   95  A    between atoms: _226  and  _227
REMARK   96  A    between atoms: _226  and  _229
REMARK   97  A    between atoms: _232  and  _234
REMARK   98  A    between atoms: _234  and  _235
REMARK   99  A    between atoms: _234  and  _237
REMARK  100  A    between atoms: _237  and  _238
REMARK  101  A    between atoms: _238  and  _239
REMARK  102  A    between atoms: _242  and  _244
REMARK  103  A    between atoms: _244  and  _245
REMARK  104  A    between atoms: _244  and  _247
REMARK  105  A    between atoms: _247  and  _248
REMARK  106  A    between atoms: _248  and  _249
REMARK  107  A    between atoms: _251  and  _253
REMARK  108  A    between atoms: _253  and  _254
REMARK  109  A    between atoms: _253  and  _256
REMARK  110  A    between atoms: _256  and  _257
REMARK  111  A    between atoms: _257  and  _258
REMARK  112  A    between atoms: _261  and  _263
REMARK  113  A    between atoms: _263  and  _264
REMARK  114  A    between atoms: _267  and  _269
REMARK  115  A    between atoms: _269  and  _270
REMARK  116  A    between atoms: _269  and  _272
REMARK  117  A    between atoms: _272  and  _273
REMARK  118  A    between atoms: _273  and  _274
REMARK  119  A    between atoms: _274  and  _275
REMARK  120  A    between atoms: _284  and  _286
REMARK  121  A    between atoms: _286  and  _287
REMARK  122  A    between atoms: _290  and  _292
REMARK  123  A    between atoms: _292  and  _293
REMARK  124  A    between atoms: _292  and  _295
REMARK  125  A    between atoms: _295  and  _296
REMARK  126  A    between atoms: _299  and  _301
REMARK  127  A    between atoms: _301  and  _302
REMARK  128  A    between atoms: _301  and  _304
REMARK  129  A    between atoms: _304  and  _305
REMARK  130  A    between atoms: _307  and  _309
REMARK  131  A    between atoms: _309  and  _310
REMARK  132  A    between atoms: _309  and  _312
REMARK  133  A    between atoms: _312  and  _313
REMARK  134  A    between atoms: _316  and  _318
REMARK  135  A    between atoms: _318  and  _319
REMARK  136  A    between atoms: _318  and  _321
REMARK  137  A    between atoms: _324  and  _326
REMARK  138  A    between atoms: _326  and  _327
REMARK  139  A    between atoms: _330  and  _332
REMARK  140  A    between atoms: _332  and  _333
REMARK  141  A    between atoms: _332  and  _335
REMARK  142  A    between atoms: _335  and  _336
REMARK  143  A    between atoms: _339  and  _341
REMARK  144  A    between atoms: _341  and  _342
REMARK  145  A    between atoms: _341  and  _344
REMARK  146  A    between atoms: _344  and  _345
REMARK  147  A    between atoms: _345  and  _346
REMARK  148  A    between atoms: _351  and  _353
REMARK  149  A    between atoms: _353  and  _354
REMARK  150  A    between atoms: _353  and  _356
REMARK  151  A    between atoms: _356  and  _357
REMARK  152  A    between atoms: _359  and  _361
REMARK  153  A    between atoms: _361  and  _362
REMARK  154  A    between atoms: _361  and  _364
REMARK  155  A    between atoms: _364  and  _365
REMARK  156  A    between atoms: _370  and  _372
REMARK  157  A    between atoms: _372  and  _373
REMARK  158  A    between atoms: _372  and  _375
REMARK  159  A    between atoms: _375  and  _376
REMARK  160  A    between atoms: _378  and  _380
REMARK  161  A    between atoms: _380  and  _381
REMARK  162  A    between atoms: _380  and  _383
REMARK  163  A    between atoms: _383  and  _384
REMARK  164  A    between atoms: _390  and  _392
REMARK  165  A    between atoms: _392  and  _393
REMARK  166  A    between atoms: _392  and  _395
REMARK  167  A    between atoms: _395  and  _396
REMARK  168  A    between atoms: _399  and  _401
REMARK  169  A    between atoms: _401  and  _402
REMARK  170  A    between atoms: _401  and  _404
REMARK  171  A    between atoms: _404  and  _405
REMARK  172  A    between atoms: _408  and  _410
REMARK  173  A    between atoms: _410  and  _411
REMARK  174  A    between atoms: _414  and  _416
REMARK  175  A    between atoms: _416  and  _417
REMARK  176  A    between atoms: _416  and  _419
REMARK  177  A    between atoms: _419  and  _420
REMARK  178  A    between atoms: _423  and  _425
REMARK  179  A    between atoms: _425  and  _426
REMARK  180  A    between atoms: _425  and  _428
REMARK  181  A    between atoms: _431  and  _433
REMARK  182  A    between atoms: _433  and  _434
REMARK  183  A    between atoms: _437  and  _439
REMARK  184  A    between atoms: _439  and  _440
REMARK  185  A    between atoms: _439  and  _442
REMARK  186  A    between atoms: _442  and  _443
REMARK  187  A    between atoms: _449  and  _451
REMARK  188  A    between atoms: _451  and  _452
REMARK  189  A    between atoms: _451  and  _454
REMARK  190  A    between atoms: _454  and  _455
REMARK  191  A    between atoms: _460  and  _461
REMARK  192  A    between atoms: _463  and  _465
REMARK  193  A    between atoms: _465  and  _466
REMARK  194  A    between atoms: _465  and  _468
REMARK  195  A    between atoms: _468  and  _469
REMARK  196  A    between atoms: _473  and  _474
REMARK                            x       y       z     vdW  Elec       q    Type
REMARK                         _______ _______ _______ _____ _____    ______ ____
ROOT
ATOM      1  C   ALA A   5      50.957  74.551  24.300  0.00  0.00    +0.241 C 
ATOM      2  N   PHE A   6      50.801  73.324  23.804  0.00  0.00    -0.297 N 
ATOM      3  H   PHE A   6      50.352  72.592  24.390  0.00  0.00    +0.150 HD
ATOM      4  O   ALA A   5      51.520  75.454  23.685  0.00  0.00    -0.273 OA
ENDROOT
BRANCH   1   5
ATOM      5  CA  ALA A   5      50.401  74.792  25.697  0.00  0.00    +0.149 C 
ATOM      6  CB  ALA A   5      48.943  75.341  25.591  0.00  0.00    +0.031 C 
BRANCH   5   9
ATOM      7  C   ASP A   4      51.535  75.529  27.724  0.00  0.00    +0.241 C 
ATOM      8  O   ASP A   4      51.089  74.580  28.371  0.00  0.00    -0.273 OA
ATOM      9  N   ALA A   5      51.253  75.722  26.440  0.00  0.00    -0.297 N 
ATOM     10  H   ALA A   5      51.646  76.552  25.952  0.00  0.00    +0.150 HD
BRANCH   7  11
ATOM     11  CA  ASP A   4      52.445  76.567  28.381  0.00  0.00    +0.160 C 
BRANCH  11  13
ATOM     12  C   GLY A   3      52.957  78.429  26.911  0.00  0.00    +0.243 C 
ATOM     13  N   ASP A   4      52.203  77.927  27.885  0.00  0.00    -0.296 N 
ATOM     14  H   ASP A   4      51.439  78.500  28.297  0.00  0.00    +0.150 HD
ATOM     15  O   GLY A   3      53.881  77.802  26.396  0.00  0.00    -0.273 OA
BRANCH  12  16
ATOM     16  CA  GLY A   3      52.657  79.834  26.434  0.00  0.00    +0.176 C 
BRANCH  16  19
ATOM     17  C   SER A   2      54.068  81.460  25.319  0.00  0.00    +0.243 C 
ATOM     18  O   SER A   2      53.513  82.418  25.868  0.00  0.00    -0.273 OA
ATOM     19  N   GLY A   3      53.726  80.197  25.532  0.00  0.00    -0.295 N 
ATOM     20  H   GLY A   3      54.243  79.444  25.035  0.00  0.00    +0.150 HD
BRANCH  17  21
ATOM     21  CA  SER A   2      55.241  81.663  24.360  0.00  0.00    +0.178 C 
BRANCH  21  23
ATOM     22  C   VAL A   1      55.105  82.930  22.260  0.00  0.00    +0.238 C 
ATOM     23  N   SER A   2      55.128  82.914  23.596  0.00  0.00    -0.295 N 
ATOM     24  H   SER A   2      55.064  83.815  24.112  0.00  0.00    +0.150 HD
ATOM     25  O   VAL A   1      55.176  81.901  21.590  0.00  0.00    -0.274 OA
BRANCH  22  26
ATOM     26  CA  VAL A   1      54.987  84.311  21.571  0.00  0.00    +0.145 C 
BRANCH  26  27
ATOM     27  CB  VAL A   1      53.484  84.677  21.280  0.00  0.00    +0.025 C 
ATOM     28  CG2 VAL A   1      53.402  86.117  20.793  0.00  0.00    +0.002 C 
ATOM     29  CG1 VAL A   1      52.866  83.747  20.213  0.00  0.00    +0.002 C 
ENDBRANCH  26  27
BRANCH  26  30
ATOM     30  N   VAL A   1      55.779  84.422  20.357  0.00  0.00    -0.238 NA
ATOM     31  H   VAL A   1      55.488  83.903  19.504  0.00  0.00    +0.142 HD
ENDBRANCH  26  30
ENDBRANCH  22  26
ENDBRANCH  21  23
BRANCH  21  32
ATOM     32  CB  SER A   2      56.518  81.642  25.215  0.00  0.00    +0.166 C 
BRANCH  32  33
ATOM     33  OG  SER A   2      57.678  81.954  24.477  0.00  0.00    -0.380 OA
ATOM     34  H   SER A   2      57.792  81.294  23.748  0.00  0.00    +0.211 HD
ENDBRANCH  32  33
ENDBRANCH  21  32
ENDBRANCH  17  21
ENDBRANCH  16  19
ENDBRANCH  12  16
ENDBRANCH  11  13
BRANCH  11  35
ATOM     35  CB  ASP A   4      52.283  76.501  29.919  0.00  0.00    +0.143 C 
BRANCH  35  36
ATOM     36  CG  ASP A   4      53.622  76.512  30.644  0.00  0.00    +0.367 C 
ATOM     37  OD2 ASP A   4      53.631  76.619  31.892  0.00  0.00    -0.246 OA
ATOM     38  OD1 ASP A   4      54.667  76.402  29.962  0.00  0.00    -0.246 OA
ENDBRANCH  35  36
ENDBRANCH  11  35
ENDBRANCH   7  11
ENDBRANCH   5   9
ENDBRANCH   1   5
BRANCH   2  39
ATOM     39  CA  PHE A   6      51.246  72.987  22.460  0.00  0.00    +0.153 C 
BRANCH  39  40
ATOM     40  C   PHE A   6      50.076  73.349  21.554  0.00  0.00    +0.241 C 
ATOM     41  O   PHE A   6      49.029  72.717  21.626  0.00  0.00    -0.273 OA
ATOM     42  N   ILE A   7      50.250  74.385  20.728  0.00  0.00    -0.297 N 
ATOM     43  H   ILE A   7      51.174  74.861  20.714  0.00  0.00    +0.150 HD
BRANCH  42  44
ATOM     44  CA  ILE A   7      49.187  74.880  19.837  0.00  0.00    +0.149 C 
BRANCH  44  45
ATOM     45  C   ILE A   7      48.920  73.892  18.697  0.00  0.00    +0.241 C 
ATOM     46  N   ASN A   8      47.661  73.484  18.596  0.00  0.00    -0.297 N 
ATOM     47  H   ASN A   8      46.949  73.904  19.227  0.00  0.00    +0.150 HD
ATOM     48  O   ILE A   7      49.823  73.538  17.921  0.00  0.00    -0.273 OA
BRANCH  46  49
ATOM     49  CA  ASN A   8      47.234  72.473  17.638  0.00  0.00    +0.158 C 
BRANCH  49  50
ATOM     50  C   ASN A   8      45.908  72.863  16.955  0.00  0.00    +0.241 C 
ATOM     51  O   ASN A   8      44.929  72.150  17.049  0.00  0.00    -0.273 OA
ATOM     52  N   GLY A   9      45.900  74.009  16.279  0.00  0.00    -0.296 N 
ATOM     53  H   GLY A   9      46.768  74.580  16.239  0.00  0.00    +0.150 HD
BRANCH  52  54
ATOM     54  CA  GLY A   9      44.710  74.481  15.596  0.00  0.00    +0.163 C 
BRANCH  54  55
ATOM     55  C   GLY A   9      43.600  74.914  16.527  0.00  0.00    +0.229 C 
ATOM     56  O   GLY A   9      43.820  75.109  17.728  0.00  0.00    -0.286 OA
ENDBRANCH  54  55
ENDBRANCH  52  54
ENDBRANCH  49  50
BRANCH  49  57
ATOM     57  CB  ASN A   8      47.106  71.159  18.431  0.00  0.00    +0.114 C 
BRANCH  57  58
ATOM     58  CG  ASN A   8      46.843  69.954  17.566  0.00  0.00    +0.222 C 
ATOM     59  ND2 ASN A   8      45.935  69.093  18.024  0.00  0.00    -0.329 N 
ATOM     60 HD21 ASN A   8      45.439  69.286  18.917  0.00  0.00    +0.145 HD
ATOM     61 HD22 ASN A   8      45.722  68.228  17.488  0.00  0.00    +0.145 HD
ATOM     62  OD1 ASN A   8      47.458  69.774  16.516  0.00  0.00    -0.275 OA
ENDBRANCH  57  58
ENDBRANCH  49  57
ENDBRANCH  46  49
ENDBRANCH  44  45
BRANCH  44  63
ATOM     63  CB  ILE A   7      49.558  76.250  19.259  0.00  0.00    +0.027 C 
ATOM     64  CG2 ILE A   7      48.360  76.867  18.561  0.00  0.00    +0.002 C 
BRANCH  63  65
ATOM     65  CG1 ILE A   7      50.080  77.160  20.375  0.00  0.00    +0.002 C 
ATOM     66  CD1 ILE A   7      49.153  77.331  21.553  0.00  0.00    +0.000 C 
ENDBRANCH  63  65
ENDBRANCH  44  63
ENDBRANCH  42  44
ENDBRANCH  39  40
BRANCH  39  67
ATOM     67  CB  PHE A   6      51.576  71.503  22.368  0.00  0.00    +0.055 C 
BRANCH  67  68
ATOM     68  CG  PHE A   6      51.997  71.066  20.988  0.00  0.00    -0.020 A 
ATOM     69  CD2 PHE A   6      53.310  71.238  20.564  0.00  0.00    -0.004 A 
ATOM     70  CE2 PHE A   6      53.699  70.863  19.279  0.00  0.00    -0.000 A 
ATOM     71  CZ  PHE A   6      52.761  70.309  18.406  0.00  0.00    -0.000 A 
ATOM     72  CE1 PHE A   6      51.452  70.132  18.824  0.00  0.00    -0.000 A 
ATOM     73  CD1 PHE A   6      51.075  70.508  20.106  0.00  0.00    -0.004 A 
ENDBRANCH  67  68
ENDBRANCH  39  67
ENDBRANCH   2  39
TORSDOF 29
REMARK  Name = ../refined-set-2016/1y6q/1y6q_pocket.pdb
REMARK  196 active torsions:
REMARK  status: ('A' for Active; 'I' for Inactive)
REMARK    1  A    between atoms: _1  and  _3
REMARK    2  A    between atoms: _3  and  _4
REMARK    3  A    between atoms: _6  and  _8
REMARK    4  A    between atoms: _8  and  _9
REMARK    5  A    between atoms: _12  and  _14
REMARK    6  A    between atoms: _14  and  _15
REMARK    7  A    between atoms: _14  and  _17
REMARK    8  A    between atoms: _17  and  _18
REMARK    9  A    between atoms: _18  and  _19
REMARK   10  A    between atoms: _21  and  _23
REMARK   11  A    between atoms: _23  and  _24
REMARK   12  A    between atoms: _23  and  _26
REMARK   13  A    between atoms: _26  and  _27
REMARK   14  A    between atoms: _27  and  _28
REMARK   15  A    between atoms: _31  and  _33
REMARK   16  A    between atoms: _33  and  _34
REMARK   17  A    between atoms: _33  and  _36
REMARK   18  A    between atoms: _36  and  _37
REMARK   19  A    between atoms: _39  and  _41
REMARK   20  A    between atoms: _41  and  _42
REMARK   21  A    between atoms: _44  and  _46
REMARK   22  A    between atoms: _46  and  _47
REMARK   23  A    between atoms: _46  and  _49
REMARK   24  A    between atoms: _49  and  _50
REMARK   25  A    between atoms: _53  and  _55
REMARK   26  A    between atoms: _55  and  _56
REMARK   27  A    between atoms: _58  and  _60
REMARK   28  A    between atoms: _60  and  _61
REMARK   29  A    between atoms: _60  and  _63
REMARK   30  A    between atoms: _63  and  _64
REMARK   31  A    between atoms: _69  and  _71
REMARK   32  A    between atoms: _71  and  _72
REMARK   33  A    between atoms: _71  and  _74
REMARK   34  A    between atoms: _74  and  _75
REMARK   35  A    between atoms: _78  and  _80
REMARK   36  A    between atoms: _80  and  _81
REMARK   37  A    between atoms: _83  and  _85
REMARK   38  A    between atoms: _85  and  _86
REMARK   39  A    between atoms: _85  and  _88
REMARK   40  A    between atoms: _88  and  _89
REMARK   41  A    between atoms: _91  and  _93
REMARK   42  A    between atoms: _93  and  _94
REMARK   43  A    between atoms: _97  and  _99
REMARK   44  A    between atoms: _99  and  _100
REMARK   45  A    between atoms: _102  and  _104
REMARK   46  A    between atoms: _104  and  _105
REMARK   47  A    between atoms: _107  and  _109
REMARK   48  A    between atoms: _109  and  _110
REMARK   49  A    between atoms: _109  and  _112
REMARK   50  A    between atoms: _112  and  _113
REMARK   51  A    between atoms: _116  and  _118
REMARK   52  A    between atoms: _118  and  _119
REMARK   53  A    between atoms: _118  and  _121
REMARK   54  A    between atoms: _121  and  _122
REMARK   55  A    between atoms: _127  and  _129
REMARK   56  A    between atoms: _129  and  _130
REMARK   57  A    between atoms: _129  and  _132
REMARK   58  A    between atoms: _135  and  _137
REMARK   59  A    between atoms: _137  and  _138
REMARK   60  A    between atoms: _137  and  _140
REMARK   61  A    between atoms: _140  and  _141
REMARK   62  A    between atoms: _143  and  _145
REMARK   63  A    between atoms: _145  and  _146
REMARK   64  A    between atoms: _148  and  _150
REMARK   65  A    between atoms: _150  and  _151
REMARK   66  A    between atoms: _150  and  _153
REMARK   67  A    between atoms: _153  and  _154
REMARK   68  A    between atoms: _157  and  _159
REMARK   69  A    between atoms: _159  and  _160
REMARK   70  A    between atoms: _163  and  _165
REMARK   71  A    between atoms: _165  and  _166
REMARK   72  A    between atoms: _165  and  _168
REMARK   73  A    between atoms: _168  and  _169
REMARK   74  A    between atoms: _175  and  _177
REMARK   75  A    between atoms: _177  and  _178
REMARK   76  A    between atoms: _177  and  _180
REMARK   77  A    between atoms: _180  and  _181
REMARK   78  A    between atoms: _184  and  _186
REMARK   79  A    between atoms: _186  and  _187
REMARK   80  A    between atoms: _186  and  _189
REMARK   81  A    between atoms: _189  and  _190
REMARK   82  A    between atoms: _195  and  _197
REMARK   83  A    between atoms: _197  and  _198
REMARK   84  A    between atoms: _200  and  _202
REMARK   85  A    between atoms: _202  and  _203
REMARK   86  A    between atoms: _202  and  _205
REMARK   87  A    between atoms: _205  and  _206
REMARK   88  A    between atoms: _209  and  _211
REMARK   89  A    between atoms: _211  and  _212
REMARK   90  A    between atoms: _211  and  _214
REMARK   91  A    between atoms: _214  and  _215
REMARK   92  A    between atoms: _218  and  _220
REMARK   93  A    between atoms: _220  and  _221
REMARK   94  A    between atoms: _224  and  _226
REMARK   95  A    between atoms: _226  and  _227
REMARK   96  A    between atoms: _226  and  _229
REMARK   97  A    between atoms: _232  and  _234
REMARK   98  A    between atoms: _234  and  _235
REMARK   99  A    between atoms: _234  and  _237
REMARK  100  A    between atoms: _237  and  _238
REMARK  101  A    between atoms: _238  and  _239
REMARK  102  A    between atoms: _242  and  _244
REMARK  103  A    between atoms: _244  and  _245
REMARK  104  A    between atoms: _244  and  _247
REMARK  105  A    between atoms: _247  and  _248
REMARK  106  A    between atoms: _248  and  _249
REMARK  107  A    between atoms: _251  and  _253
REMARK  108  A    between atoms: _253  and  _254
REMARK  109  A    between atoms: _253  and  _256
REMARK  110  A    between atoms: _256  and  _257
REMARK  111  A    between atoms: _257  and  _258
REMARK  112  A    between atoms: _261  and  _263
REMARK  113  A    between atoms: _263  and  _264
REMARK  114  A    between atoms: _267  and  _269
REMARK  115  A    between atoms: _269  and  _270
REMARK  116  A    between atoms: _269  and  _272
REMARK  117  A    between atoms: _272  and  _273
REMARK  118  A    between atoms: _273  and  _274
REMARK  119  A    between atoms: _274  and  _275
REMARK  120  A    between atoms: _284  and  _286
REMARK  121  A    between atoms: _286  and  _287
REMARK  122  A    between atoms: _290  and  _292
REMARK  123  A    between atoms: _292  and  _293
REMARK  124  A    between atoms: _292  and  _295
REMARK  125  A    between atoms: _295  and  _296
REMARK  126  A    between atoms: _299  and  _301
REMARK  127  A    between atoms: _301  and  _302
REMARK  128  A    between atoms: _301  and  _304
REMARK  129  A    between atoms: _304  and  _305
REMARK  130  A    between atoms: _307  and  _309
REMARK  131  A    between atoms: _309  and  _310
REMARK  132  A    between atoms: _309  and  _312
REMARK  133  A    between atoms: _312  and  _313
REMARK  134  A    between atoms: _316  and  _318
REMARK  135  A    between atoms: _318  and  _319
REMARK  136  A    between atoms: _318  and  _321
REMARK  137  A    between atoms: _324  and  _326
REMARK  138  A    between atoms: _326  and  _327
REMARK  139  A    between atoms: _330  and  _332
REMARK  140  A    between atoms: _332  and  _333
REMARK  141  A    between atoms: _332  and  _335
REMARK  142  A    between atoms: _335  and  _336
REMARK  143  A    between atoms: _339  and  _341
REMARK  144  A    between atoms: _341  and  _342
REMARK  145  A    between atoms: _341  and  _344
REMARK  146  A    between atoms: _344  and  _345
REMARK  147  A    between atoms: _345  and  _346
REMARK  148  A    between atoms: _351  and  _353
REMARK  149  A    between atoms: _353  and  _354
REMARK  150  A    between atoms: _353  and  _356
REMARK  151  A    between atoms: _356  and  _357
REMARK  152  A    between atoms: _359  and  _361
REMARK  153  A    between atoms: _361  and  _362
REMARK  154  A    between atoms: _361  and  _364
REMARK  155  A    between atoms: _364  and  _365
REMARK  156  A    between atoms: _370  and  _372
REMARK  157  A    between atoms: _372  and  _373
REMARK  158  A    between atoms: _372  and  _375
REMARK  159  A    between atoms: _375  and  _376
REMARK  160  A    between atoms: _378  and  _380
REMARK  161  A    between atoms: _380  and  _381
REMARK  162  A    between atoms: _380  and  _383
REMARK  163  A    between atoms: _383  and  _384
REMARK  164  A    between atoms: _390  and  _392
REMARK  165  A    between atoms: _392  and  _393
REMARK  166  A    between atoms: _392  and  _395
REMARK  167  A    between atoms: _395  and  _396
REMARK  168  A    between atoms: _399  and  _401
REMARK  169  A    between atoms: _401  and  _402
REMARK  170  A    between atoms: _401  and  _404
REMARK  171  A    between atoms: _404  and  _405
REMARK  172  A    between atoms: _408  and  _410
REMARK  173  A    between atoms: _410  and  _411
REMARK  174  A    between atoms: _414  and  _416
REMARK  175  A    between atoms: _416  and  _417
REMARK  176  A    between atoms: _416  and  _419
REMARK  177  A    between atoms: _419  and  _420
REMARK  178  A    between atoms: _423  and  _425
REMARK  179  A    between atoms: _425  and  _426
REMARK  180  A    between atoms: _425  and  _428
REMARK  181  A    between atoms: _431  and  _433
REMARK  182  A    between atoms: _433  and  _434
REMARK  183  A    between atoms: _437  and  _439
REMARK  184  A    between atoms: _439  and  _440
REMARK  185  A    between atoms: _439  and  _442
REMARK  186  A    between atoms: _442  and  _443
REMARK  187  A    between atoms: _449  and  _451
REMARK  188  A    between atoms: _451  and  _452
REMARK  189  A    between atoms: _451  and  _454
REMARK  190  A    between atoms: _454  and  _455
REMARK  191  A    between atoms: _460  and  _461
REMARK  192  A    between atoms: _463  and  _465
REMARK  193  A    between atoms: _465  and  _466
REMARK  194  A    between atoms: _465  and  _468
REMARK  195  A    between atoms: _468  and  _469
REMARK  196  A    between atoms: _473  and  _474
REMARK                            x       y       z     vdW  Elec       q    Type
REMARK                         _______ _______ _______ _____ _____    ______ ____
ROOT
ATOM      1  CA  LEU A   1      45.511  79.179  17.387  0.00  0.00    +0.133 C 
ENDROOT
BRANCH   1   2
ATOM      2  N   LEU A   1      44.861  78.420  18.438  0.00  0.00    -0.239 NA
ATOM      3  H   LEU A   1      44.372  77.536  18.190  0.00  0.00    +0.142 HD
ENDBRANCH   1   2
BRANCH   1   4
ATOM      4  C   LEU A   1      44.778  80.468  17.032  0.00  0.00    +0.224 C 
ATOM      5  O   LEU A   1      45.417  81.468  16.693  0.00  0.00    -0.287 OA
ENDBRANCH   1   4
BRANCH   1   6
ATOM      6  CB  LEU A   1      45.644  78.307  16.137  0.00  0.00    +0.025 C 
BRANCH   6   7
ATOM      7  CG  LEU A   1      46.111  78.994  14.855  0.00  0.00    +0.002 C 
ATOM      8  CD2 LEU A   1      47.552  79.528  15.009  0.00  0.00    +0.000 C 
ATOM      9  CD1 LEU A   1      46.033  77.990  13.714  0.00  0.00    +0.000 C 
ENDBRANCH   6   7
ENDBRANCH   1   6
TORSDOF 4
REMARK  Name = ../refined-set-2016/1y6q/1y6q_pocket.pdb
REMARK  196 active torsions:
REMARK  status: ('A' for Active; 'I' for Inactive)
REMARK    1  A    between atoms: _1  and  _3
REMARK    2  A    between atoms: _3  and  _4
REMARK    3  A    between atoms: _6  and  _8
REMARK    4  A    between atoms: _8  and  _9
REMARK    5  A    between atoms: _12  and  _14
REMARK    6  A    between atoms: _14  and  _15
REMARK    7  A    between atoms: _14  and  _17
REMARK    8  A    between atoms: _17  and  _18
REMARK    9  A    between atoms: _18  and  _19
REMARK   10  A    between atoms: _21  and  _23
REMARK   11  A    between atoms: _23  and  _24
REMARK   12  A    between atoms: _23  and  _26
REMARK   13  A    between atoms: _26  and  _27
REMARK   14  A    between atoms: _27  and  _28
REMARK   15  A    between atoms: _31  and  _33
REMARK   16  A    between atoms: _33  and  _34
REMARK   17  A    between atoms: _33  and  _36
REMARK   18  A    between atoms: _36  and  _37
REMARK   19  A    between atoms: _39  and  _41
REMARK   20  A    between atoms: _41  and  _42
REMARK   21  A    between atoms: _44  and  _46
REMARK   22  A    between atoms: _46  and  _47
REMARK   23  A    between atoms: _46  and  _49
REMARK   24  A    between atoms: _49  and  _50
REMARK   25  A    between atoms: _53  and  _55
REMARK   26  A    between atoms: _55  and  _56
REMARK   27  A    between atoms: _58  and  _60
REMARK   28  A    between atoms: _60  and  _61
REMARK   29  A    between atoms: _60  and  _63
REMARK   30  A    between atoms: _63  and  _64
REMARK   31  A    between atoms: _69  and  _71
REMARK   32  A    between atoms: _71  and  _72
REMARK   33  A    between atoms: _71  and  _74
REMARK   34  A    between atoms: _74  and  _75
REMARK   35  A    between atoms: _78  and  _80
REMARK   36  A    between atoms: _80  and  _81
REMARK   37  A    between atoms: _83  and  _85
REMARK   38  A    between atoms: _85  and  _86
REMARK   39  A    between atoms: _85  and  _88
REMARK   40  A    between atoms: _88  and  _89
REMARK   41  A    between atoms: _91  and  _93
REMARK   42  A    between atoms: _93  and  _94
REMARK   43  A    between atoms: _97  and  _99
REMARK   44  A    between atoms: _99  and  _100
REMARK   45  A    between atoms: _102  and  _104
REMARK   46  A    between atoms: _104  and  _105
REMARK   47  A    between atoms: _107  and  _109
REMARK   48  A    between atoms: _109  and  _110
REMARK   49  A    between atoms: _109  and  _112
REMARK   50  A    between atoms: _112  and  _113
REMARK   51  A    between atoms: _116  and  _118
REMARK   52  A    between atoms: _118  and  _119
REMARK   53  A    between atoms: _118  and  _121
REMARK   54  A    between atoms: _121  and  _122
REMARK   55  A    between atoms: _127  and  _129
REMARK   56  A    between atoms: _129  and  _130
REMARK   57  A    between atoms: _129  and  _132
REMARK   58  A    between atoms: _135  and  _137
REMARK   59  A    between atoms: _137  and  _138
REMARK   60  A    between atoms: _137  and  _140
REMARK   61  A    between atoms: _140  and  _141
REMARK   62  A    between atoms: _143  and  _145
REMARK   63  A    between atoms: _145  and  _146
REMARK   64  A    between atoms: _148  and  _150
REMARK   65  A    between atoms: _150  and  _151
REMARK   66  A    between atoms: _150  and  _153
REMARK   67  A    between atoms: _153  and  _154
REMARK   68  A    between atoms: _157  and  _159
REMARK   69  A    between atoms: _159  and  _160
REMARK   70  A    between atoms: _163  and  _165
REMARK   71  A    between atoms: _165  and  _166
REMARK   72  A    between atoms: _165  and  _168
REMARK   73  A    between atoms: _168  and  _169
REMARK   74  A    between atoms: _175  and  _177
REMARK   75  A    between atoms: _177  and  _178
REMARK   76  A    between atoms: _177  and  _180
REMARK   77  A    between atoms: _180  and  _181
REMARK   78  A    between atoms: _184  and  _186
REMARK   79  A    between atoms: _186  and  _187
REMARK   80  A    between atoms: _186  and  _189
REMARK   81  A    between atoms: _189  and  _190
REMARK   82  A    between atoms: _195  and  _197
REMARK   83  A    between atoms: _197  and  _198
REMARK   84  A    between atoms: _200  and  _202
REMARK   85  A    between atoms: _202  and  _203
REMARK   86  A    between atoms: _202  and  _205
REMARK   87  A    between atoms: _205  and  _206
REMARK   88  A    between atoms: _209  and  _211
REMARK   89  A    between atoms: _211  and  _212
REMARK   90  A    between atoms: _211  and  _214
REMARK   91  A    between atoms: _214  and  _215
REMARK   92  A    between atoms: _218  and  _220
REMARK   93  A    between atoms: _220  and  _221
REMARK   94  A    between atoms: _224  and  _226
REMARK   95  A    between atoms: _226  and  _227
REMARK   96  A    between atoms: _226  and  _229
REMARK   97  A    between atoms: _232  and  _234
REMARK   98  A    between atoms: _234  and  _235
REMARK   99  A    between atoms: _234  and  _237
REMARK  100  A    between atoms: _237  and  _238
REMARK  101  A    between atoms: _238  and  _239
REMARK  102  A    between atoms: _242  and  _244
REMARK  103  A    between atoms: _244  and  _245
REMARK  104  A    between atoms: _244  and  _247
REMARK  105  A    between atoms: _247  and  _248
REMARK  106  A    between atoms: _248  and  _249
REMARK  107  A    between atoms: _251  and  _253
REMARK  108  A    between atoms: _253  and  _254
REMARK  109  A    between atoms: _253  and  _256
REMARK  110  A    between atoms: _256  and  _257
REMARK  111  A    between atoms: _257  and  _258
REMARK  112  A    between atoms: _261  and  _263
REMARK  113  A    between atoms: _263  and  _264
REMARK  114  A    between atoms: _267  and  _269
REMARK  115  A    between atoms: _269  and  _270
REMARK  116  A    between atoms: _269  and  _272
REMARK  117  A    between atoms: _272  and  _273
REMARK  118  A    between atoms: _273  and  _274
REMARK  119  A    between atoms: _274  and  _275
REMARK  120  A    between atoms: _284  and  _286
REMARK  121  A    between atoms: _286  and  _287
REMARK  122  A    between atoms: _290  and  _292
REMARK  123  A    between atoms: _292  and  _293
REMARK  124  A    between atoms: _292  and  _295
REMARK  125  A    between atoms: _295  and  _296
REMARK  126  A    between atoms: _299  and  _301
REMARK  127  A    between atoms: _301  and  _302
REMARK  128  A    between atoms: _301  and  _304
REMARK  129  A    between atoms: _304  and  _305
REMARK  130  A    between atoms: _307  and  _309
REMARK  131  A    between atoms: _309  and  _310
REMARK  132  A    between atoms: _309  and  _312
REMARK  133  A    between atoms: _312  and  _313
REMARK  134  A    between atoms: _316  and  _318
REMARK  135  A    between atoms: _318  and  _319
REMARK  136  A    between atoms: _318  and  _321
REMARK  137  A    between atoms: _324  and  _326
REMARK  138  A    between atoms: _326  and  _327
REMARK  139  A    between atoms: _330  and  _332
REMARK  140  A    between atoms: _332  and  _333
REMARK  141  A    between atoms: _332  and  _335
REMARK  142  A    between atoms: _335  and  _336
REMARK  143  A    between atoms: _339  and  _341
REMARK  144  A    between atoms: _341  and  _342
REMARK  145  A    between atoms: _341  and  _344
REMARK  146  A    between atoms: _344  and  _345
REMARK  147  A    between atoms: _345  and  _346
REMARK  148  A    between atoms: _351  and  _353
REMARK  149  A    between atoms: _353  and  _354
REMARK  150  A    between atoms: _353  and  _356
REMARK  151  A    between atoms: _356  and  _357
REMARK  152  A    between atoms: _359  and  _361
REMARK  153  A    between atoms: _361  and  _362
REMARK  154  A    between atoms: _361  and  _364
REMARK  155  A    between atoms: _364  and  _365
REMARK  156  A    between atoms: _370  and  _372
REMARK  157  A    between atoms: _372  and  _373
REMARK  158  A    between atoms: _372  and  _375
REMARK  159  A    between atoms: _375  and  _376
REMARK  160  A    between atoms: _378  and  _380
REMARK  161  A    between atoms: _380  and  _381
REMARK  162  A    between atoms: _380  and  _383
REMARK  163  A    between atoms: _383  and  _384
REMARK  164  A    between atoms: _390  and  _392
REMARK  165  A    between atoms: _392  and  _393
REMARK  166  A    between atoms: _392  and  _395
REMARK  167  A    between atoms: _395  and  _396
REMARK  168  A    between atoms: _399  and  _401
REMARK  169  A    between atoms: _401  and  _402
REMARK  170  A    between atoms: _401  and  _404
REMARK  171  A    between atoms: _404  and  _405
REMARK  172  A    between atoms: _408  and  _410
REMARK  173  A    between atoms: _410  and  _411
REMARK  174  A    between atoms: _414  and  _416
REMARK  175  A    between atoms: _416  and  _417
REMARK  176  A    between atoms: _416  and  _419
REMARK  177  A    between atoms: _419  and  _420
REMARK  178  A    between atoms: _423  and  _425
REMARK  179  A    between atoms: _425  and  _426
REMARK  180  A    between atoms: _425  and  _428
REMARK  181  A    between atoms: _431  and  _433
REMARK  182  A    between atoms: _433  and  _434
REMARK  183  A    between atoms: _437  and  _439
REMARK  184  A    between atoms: _439  and  _440
REMARK  185  A    between atoms: _439  and  _442
REMARK  186  A    between atoms: _442  and  _443
REMARK  187  A    between atoms: _449  and  _451
REMARK  188  A    between atoms: _451  and  _452
REMARK  189  A    between atoms: _451  and  _454
REMARK  190  A    between atoms: _454  and  _455
REMARK  191  A    between atoms: _460  and  _461
REMARK  192  A    between atoms: _463  and  _465
REMARK  193  A    between atoms: _465  and  _466
REMARK  194  A    between atoms: _465  and  _468
REMARK  195  A    between atoms: _468  and  _469
REMARK  196  A    between atoms: _473  and  _474
REMARK                            x       y       z     vdW  Elec       q    Type
REMARK                         _______ _______ _______ _____ _____    ______ ____
ROOT
ATOM      1  CA  ILE A   1      46.816  83.797  19.401  0.00  0.00    +0.133 C 
ENDROOT
BRANCH   1   2
ATOM      2  N   ILE A   1      45.511  83.194  19.641  0.00  0.00    -0.239 NA
ATOM      3  H   ILE A   1      45.402  82.161  19.586  0.00  0.00    +0.142 HD
ENDBRANCH   1   2
BRANCH   1   4
ATOM      4  CB  ILE A   1      47.893  82.717  19.143  0.00  0.00    +0.023 C 
ATOM      5  CG2 ILE A   1      49.204  83.364  18.754  0.00  0.00    +0.002 C 
BRANCH   4   6
ATOM      6  CG1 ILE A   1      48.087  81.880  20.402  0.00  0.00    +0.002 C 
ATOM      7  CD1 ILE A   1      48.974  80.695  20.221  0.00  0.00    +0.000 C 
ENDBRANCH   4   6
ENDBRANCH   1   4
BRANCH   1   8
ATOM      8  C   ILE A   1      46.800  84.797  18.239  0.00  0.00    +0.224 C 
ATOM      9  O   ILE A   1      47.235  85.936  18.403  0.00  0.00    -0.287 OA
ENDBRANCH   1   8
TORSDOF 4
REMARK  Name = ../refined-set-2016/1y6q/1y6q_pocket.pdb
REMARK  196 active torsions:
REMARK  status: ('A' for Active; 'I' for Inactive)
REMARK    1  A    between atoms: _1  and  _3
REMARK    2  A    between atoms: _3  and  _4
REMARK    3  A    between atoms: _6  and  _8
REMARK    4  A    between atoms: _8  and  _9
REMARK    5  A    between atoms: _12  and  _14
REMARK    6  A    between atoms: _14  and  _15
REMARK    7  A    between atoms: _14  and  _17
REMARK    8  A    between atoms: _17  and  _18
REMARK    9  A    between atoms: _18  and  _19
REMARK   10  A    between atoms: _21  and  _23
REMARK   11  A    between atoms: _23  and  _24
REMARK   12  A    between atoms: _23  and  _26
REMARK   13  A    between atoms: _26  and  _27
REMARK   14  A    between atoms: _27  and  _28
REMARK   15  A    between atoms: _31  and  _33
REMARK   16  A    between atoms: _33  and  _34
REMARK   17  A    between atoms: _33  and  _36
REMARK   18  A    between atoms: _36  and  _37
REMARK   19  A    between atoms: _39  and  _41
REMARK   20  A    between atoms: _41  and  _42
REMARK   21  A    between atoms: _44  and  _46
REMARK   22  A    between atoms: _46  and  _47
REMARK   23  A    between atoms: _46  and  _49
REMARK   24  A    between atoms: _49  and  _50
REMARK   25  A    between atoms: _53  and  _55
REMARK   26  A    between atoms: _55  and  _56
REMARK   27  A    between atoms: _58  and  _60
REMARK   28  A    between atoms: _60  and  _61
REMARK   29  A    between atoms: _60  and  _63
REMARK   30  A    between atoms: _63  and  _64
REMARK   31  A    between atoms: _69  and  _71
REMARK   32  A    between atoms: _71  and  _72
REMARK   33  A    between atoms: _71  and  _74
REMARK   34  A    between atoms: _74  and  _75
REMARK   35  A    between atoms: _78  and  _80
REMARK   36  A    between atoms: _80  and  _81
REMARK   37  A    between atoms: _83  and  _85
REMARK   38  A    between atoms: _85  and  _86
REMARK   39  A    between atoms: _85  and  _88
REMARK   40  A    between atoms: _88  and  _89
REMARK   41  A    between atoms: _91  and  _93
REMARK   42  A    between atoms: _93  and  _94
REMARK   43  A    between atoms: _97  and  _99
REMARK   44  A    between atoms: _99  and  _100
REMARK   45  A    between atoms: _102  and  _104
REMARK   46  A    between atoms: _104  and  _105
REMARK   47  A    between atoms: _107  and  _109
REMARK   48  A    between atoms: _109  and  _110
REMARK   49  A    between atoms: _109  and  _112
REMARK   50  A    between atoms: _112  and  _113
REMARK   51  A    between atoms: _116  and  _118
REMARK   52  A    between atoms: _118  and  _119
REMARK   53  A    between atoms: _118  and  _121
REMARK   54  A    between atoms: _121  and  _122
REMARK   55  A    between atoms: _127  and  _129
REMARK   56  A    between atoms: _129  and  _130
REMARK   57  A    between atoms: _129  and  _132
REMARK   58  A    between atoms: _135  and  _137
REMARK   59  A    between atoms: _137  and  _138
REMARK   60  A    between atoms: _137  and  _140
REMARK   61  A    between atoms: _140  and  _141
REMARK   62  A    between atoms: _143  and  _145
REMARK   63  A    between atoms: _145  and  _146
REMARK   64  A    between atoms: _148  and  _150
REMARK   65  A    between atoms: _150  and  _151
REMARK   66  A    between atoms: _150  and  _153
REMARK   67  A    between atoms: _153  and  _154
REMARK   68  A    between atoms: _157  and  _159
REMARK   69  A    between atoms: _159  and  _160
REMARK   70  A    between atoms: _163  and  _165
REMARK   71  A    between atoms: _165  and  _166
REMARK   72  A    between atoms: _165  and  _168
REMARK   73  A    between atoms: _168  and  _169
REMARK   74  A    between atoms: _175  and  _177
REMARK   75  A    between atoms: _177  and  _178
REMARK   76  A    between atoms: _177  and  _180
REMARK   77  A    between atoms: _180  and  _181
REMARK   78  A    between atoms: _184  and  _186
REMARK   79  A    between atoms: _186  and  _187
REMARK   80  A    between atoms: _186  and  _189
REMARK   81  A    between atoms: _189  and  _190
REMARK   82  A    between atoms: _195  and  _197
REMARK   83  A    between atoms: _197  and  _198
REMARK   84  A    between atoms: _200  and  _202
REMARK   85  A    between atoms: _202  and  _203
REMARK   86  A    between atoms: _202  and  _205
REMARK   87  A    between atoms: _205  and  _206
REMARK   88  A    between atoms: _209  and  _211
REMARK   89  A    between atoms: _211  and  _212
REMARK   90  A    between atoms: _211  and  _214
REMARK   91  A    between atoms: _214  and  _215
REMARK   92  A    between atoms: _218  and  _220
REMARK   93  A    between atoms: _220  and  _221
REMARK   94  A    between atoms: _224  and  _226
REMARK   95  A    between atoms: _226  and  _227
REMARK   96  A    between atoms: _226  and  _229
REMARK   97  A    between atoms: _232  and  _234
REMARK   98  A    between atoms: _234  and  _235
REMARK   99  A    between atoms: _234  and  _237
REMARK  100  A    between atoms: _237  and  _238
REMARK  101  A    between atoms: _238  and  _239
REMARK  102  A    between atoms: _242  and  _244
REMARK  103  A    between atoms: _244  and  _245
REMARK  104  A    between atoms: _244  and  _247
REMARK  105  A    between atoms: _247  and  _248
REMARK  106  A    between atoms: _248  and  _249
REMARK  107  A    between atoms: _251  and  _253
REMARK  108  A    between atoms: _253  and  _254
REMARK  109  A    between atoms: _253  and  _256
REMARK  110  A    between atoms: _256  and  _257
REMARK  111  A    between atoms: _257  and  _258
REMARK  112  A    between atoms: _261  and  _263
REMARK  113  A    between atoms: _263  and  _264
REMARK  114  A    between atoms: _267  and  _269
REMARK  115  A    between atoms: _269  and  _270
REMARK  116  A    between atoms: _269  and  _272
REMARK  117  A    between atoms: _272  and  _273
REMARK  118  A    between atoms: _273  and  _274
REMARK  119  A    between atoms: _274  and  _275
REMARK  120  A    between atoms: _284  and  _286
REMARK  121  A    between atoms: _286  and  _287
REMARK  122  A    between atoms: _290  and  _292
REMARK  123  A    between atoms: _292  and  _293
REMARK  124  A    between atoms: _292  and  _295
REMARK  125  A    between atoms: _295  and  _296
REMARK  126  A    between atoms: _299  and  _301
REMARK  127  A    between atoms: _301  and  _302
REMARK  128  A    between atoms: _301  and  _304
REMARK  129  A    between atoms: _304  and  _305
REMARK  130  A    between atoms: _307  and  _309
REMARK  131  A    between atoms: _309  and  _310
REMARK  132  A    between atoms: _309  and  _312
REMARK  133  A    between atoms: _312  and  _313
REMARK  134  A    between atoms: _316  and  _318
REMARK  135  A    between atoms: _318  and  _319
REMARK  136  A    between atoms: _318  and  _321
REMARK  137  A    between atoms: _324  and  _326
REMARK  138  A    between atoms: _326  and  _327
REMARK  139  A    between atoms: _330  and  _332
REMARK  140  A    between atoms: _332  and  _333
REMARK  141  A    between atoms: _332  and  _335
REMARK  142  A    between atoms: _335  and  _336
REMARK  143  A    between atoms: _339  and  _341
REMARK  144  A    between atoms: _341  and  _342
REMARK  145  A    between atoms: _341  and  _344
REMARK  146  A    between atoms: _344  and  _345
REMARK  147  A    between atoms: _345  and  _346
REMARK  148  A    between atoms: _351  and  _353
REMARK  149  A    between atoms: _353  and  _354
REMARK  150  A    between atoms: _353  and  _356
REMARK  151  A    between atoms: _356  and  _357
REMARK  152  A    between atoms: _359  and  _361
REMARK  153  A    between atoms: _361  and  _362
REMARK  154  A    between atoms: _361  and  _364
REMARK  155  A    between atoms: _364  and  _365
REMARK  156  A    between atoms: _370  and  _372
REMARK  157  A    between atoms: _372  and  _373
REMARK  158  A    between atoms: _372  and  _375
REMARK  159  A    between atoms: _375  and  _376
REMARK  160  A    between atoms: _378  and  _380
REMARK  161  A    between atoms: _380  and  _381
REMARK  162  A    between atoms: _380  and  _383
REMARK  163  A    between atoms: _383  and  _384
REMARK  164  A    between atoms: _390  and  _392
REMARK  165  A    between atoms: _392  and  _393
REMARK  166  A    between atoms: _392  and  _395
REMARK  167  A    between atoms: _395  and  _396
REMARK  168  A    between atoms: _399  and  _401
REMARK  169  A    between atoms: _401  and  _402
REMARK  170  A    between atoms: _401  and  _404
REMARK  171  A    between atoms: _404  and  _405
REMARK  172  A    between atoms: _408  and  _410
REMARK  173  A    between atoms: _410  and  _411
REMARK  174  A    between atoms: _414  and  _416
REMARK  175  A    between atoms: _416  and  _417
REMARK  176  A    between atoms: _416  and  _419
REMARK  177  A    between atoms: _419  and  _420
REMARK  178  A    between atoms: _423  and  _425
REMARK  179  A    between atoms: _425  and  _426
REMARK  180  A    between atoms: _425  and  _428
REMARK  181  A    between atoms: _431  and  _433
REMARK  182  A    between atoms: _433  and  _434
REMARK  183  A    between atoms: _437  and  _439
REMARK  184  A    between atoms: _439  and  _440
REMARK  185  A    between atoms: _439  and  _442
REMARK  186  A    between atoms: _442  and  _443
REMARK  187  A    between atoms: _449  and  _451
REMARK  188  A    between atoms: _451  and  _452
REMARK  189  A    between atoms: _451  and  _454
REMARK  190  A    between atoms: _454  and  _455
REMARK  191  A    between atoms: _460  and  _461
REMARK  192  A    between atoms: _463  and  _465
REMARK  193  A    between atoms: _465  and  _466
REMARK  194  A    between atoms: _465  and  _468
REMARK  195  A    between atoms: _468  and  _469
REMARK  196  A    between atoms: _473  and  _474
REMARK                            x       y       z     vdW  Elec       q    Type
REMARK                         _______ _______ _______ _____ _____    ______ ____
ROOT
ATOM      1  C   GLU A   3      56.232  78.065  22.749  0.00  0.00    +0.241 C 
ATOM      2  N   MET A   4      57.065  77.403  23.550  0.00  0.00    -0.297 N 
ATOM      3  H   MET A   4      57.891  76.914  23.149  0.00  0.00    +0.150 HD
ATOM      4  O   GLU A   3      55.310  78.737  23.194  0.00  0.00    -0.273 OA
ENDROOT
BRANCH   2   5
ATOM      5  CA  MET A   4      56.820  77.361  25.005  0.00  0.00    +0.149 C 
BRANCH   5   6
ATOM      6  C   MET A   4      57.926  77.746  26.003  0.00  0.00    +0.241 C 
ATOM      7  O   MET A   4      57.763  77.479  27.198  0.00  0.00    -0.273 OA
ATOM      8  N   GLU A   5      59.030  78.353  25.556  0.00  0.00    -0.297 N 
ATOM      9  H   GLU A   5      59.126  78.583  24.546  0.00  0.00    +0.150 HD
BRANCH   8  10
ATOM     10  CA  GLU A   5      60.106  78.694  26.492  0.00  0.00    +0.149 C 
BRANCH  10  11
ATOM     11  C   GLU A   5      60.800  80.037  26.262  0.00  0.00    +0.241 C 
ATOM     12  O   GLU A   5      61.367  80.627  27.190  0.00  0.00    -0.273 OA
ATOM     13  N   ALA A   6      60.751  80.518  25.029  0.00  0.00    -0.298 N 
ATOM     14  H   ALA A   6      60.227  79.990  24.302  0.00  0.00    +0.150 HD
BRANCH  13  15
ATOM     15  CA  ALA A   6      61.406  81.758  24.662  0.00  0.00    +0.137 C 
ATOM     16  CB  ALA A   6      60.989  82.142  23.240  0.00  0.00    +0.030 C 
BRANCH  15  17
ATOM     17  C   ALA A   6      61.192  82.924  25.638  0.00  0.00    +0.227 C 
ATOM     18  O   ALA A   6      62.158  83.430  26.224  0.00  0.00    -0.286 OA
ENDBRANCH  15  17
ENDBRANCH  13  15
ENDBRANCH  10  11
BRANCH  10  19
ATOM     19  CB  GLU A   5      61.195  77.605  26.480  0.00  0.00    +0.041 C 
BRANCH  19  20
ATOM     20  CG  GLU A   5      60.770  76.187  26.925  0.00  0.00    +0.116 C 
BRANCH  20  21
ATOM     21  CD  GLU A   5      60.395  75.253  25.765  0.00  0.00    +0.365 C 
ATOM     22  OE2 GLU A   5      59.553  74.333  25.956  0.00  0.00    -0.246 OA
ATOM     23  OE1 GLU A   5      60.964  75.419  24.664  0.00  0.00    -0.246 OA
ENDBRANCH  20  21
ENDBRANCH  19  20
ENDBRANCH  10  19
ENDBRANCH   8  10
ENDBRANCH   5   6
BRANCH   5  24
ATOM     24  CB  MET A   4      56.331  75.940  25.379  0.00  0.00    +0.041 C 
BRANCH  24  25
ATOM     25  CG  MET A   4      55.134  75.442  24.574  0.00  0.00    +0.060 C 
BRANCH  25  26
ATOM     26  SD  MET A   4      54.769  73.623  24.671  0.00  0.00    -0.139 S 
ATOM     27  CE  MET A   4      54.314  73.465  26.400  0.00  0.00    +0.069 C 
ENDBRANCH  25  26
ENDBRANCH  24  25
ENDBRANCH   5  24
ENDBRANCH   2   5
BRANCH   1  28
ATOM     28  CA  GLU A   3      56.437  77.996  21.231  0.00  0.00    +0.149 C 
BRANCH  28  30
ATOM     29  C   VAL A   2      55.381  79.085  19.348  0.00  0.00    +0.241 C 
ATOM     30  N   GLU A   3      55.803  79.146  20.600  0.00  0.00    -0.297 N 
ATOM     31  H   GLU A   3      55.681  80.026  21.141  0.00  0.00    +0.150 HD
ATOM     32  O   VAL A   2      55.573  78.106  18.643  0.00  0.00    -0.273 OA
BRANCH  29  33
ATOM     33  CA  VAL A   2      54.674  80.309  18.792  0.00  0.00    +0.148 C 
BRANCH  33  36
ATOM     34  C   ALA A   1      55.417  81.749  17.000  0.00  0.00    +0.238 C 
ATOM     35  O   ALA A   1      55.370  82.743  17.736  0.00  0.00    -0.274 OA
ATOM     36  N   VAL A   2      55.083  80.532  17.415  0.00  0.00    -0.297 N 
ATOM     37  H   VAL A   2      55.114  79.733  16.750  0.00  0.00    +0.150 HD
BRANCH  34  38
ATOM     38  CA  ALA A   1      55.867  81.868  15.549  0.00  0.00    +0.145 C 
ATOM     39  CB  ALA A   1      57.353  81.406  15.411  0.00  0.00    +0.028 C 
BRANCH  38  40
ATOM     40  N   ALA A   1      55.714  83.257  15.108  0.00  0.00    -0.238 NA
ATOM     41  H   ALA A   1      55.642  84.004  15.828  0.00  0.00    +0.142 HD
ENDBRANCH  38  40
ENDBRANCH  34  38
ENDBRANCH  33  36
BRANCH  33  42
ATOM     42  CB  VAL A   2      53.129  80.094  18.911  0.00  0.00    +0.027 C 
ATOM     43  CG2 VAL A   2      52.756  79.839  20.385  0.00  0.00    +0.002 C 
ATOM     44  CG1 VAL A   2      52.675  78.897  18.022  0.00  0.00    +0.002 C 
ENDBRANCH  33  42
ENDBRANCH  29  33
ENDBRANCH  28  30
BRANCH  28  45
ATOM     45  CB  GLU A   3      57.914  77.864  20.822  0.00  0.00    +0.041 C 
BRANCH  45  46
ATOM     46  CG  GLU A   3      58.729  79.144  20.861  0.00  0.00    +0.116 C 
BRANCH  46  47
ATOM     47  CD  GLU A   3      58.873  79.685  22.252  0.00  0.00    +0.365 C 
ATOM     48  OE2 GLU A   3      59.646  79.098  23.050  0.00  0.00    -0.246 OA
ATOM     49  OE1 GLU A   3      58.187  80.695  22.541  0.00  0.00    -0.246 OA
ENDBRANCH  46  47
ENDBRANCH  45  46
ENDBRANCH  28  45
ENDBRANCH   1  28
TORSDOF 22
REMARK  Name = ../refined-set-2016/1y6q/1y6q_pocket.pdb
REMARK  196 active torsions:
REMARK  status: ('A' for Active; 'I' for Inactive)
REMARK    1  A    between atoms: _1  and  _3
REMARK    2  A    between atoms: _3  and  _4
REMARK    3  A    between atoms: _6  and  _8
REMARK    4  A    between atoms: _8  and  _9
REMARK    5  A    between atoms: _12  and  _14
REMARK    6  A    between atoms: _14  and  _15
REMARK    7  A    between atoms: _14  and  _17
REMARK    8  A    between atoms: _17  and  _18
REMARK    9  A    between atoms: _18  and  _19
REMARK   10  A    between atoms: _21  and  _23
REMARK   11  A    between atoms: _23  and  _24
REMARK   12  A    between atoms: _23  and  _26
REMARK   13  A    between atoms: _26  and  _27
REMARK   14  A    between atoms: _27  and  _28
REMARK   15  A    between atoms: _31  and  _33
REMARK   16  A    between atoms: _33  and  _34
REMARK   17  A    between atoms: _33  and  _36
REMARK   18  A    between atoms: _36  and  _37
REMARK   19  A    between atoms: _39  and  _41
REMARK   20  A    between atoms: _41  and  _42
REMARK   21  A    between atoms: _44  and  _46
REMARK   22  A    between atoms: _46  and  _47
REMARK   23  A    between atoms: _46  and  _49
REMARK   24  A    between atoms: _49  and  _50
REMARK   25  A    between atoms: _53  and  _55
REMARK   26  A    between atoms: _55  and  _56
REMARK   27  A    between atoms: _58  and  _60
REMARK   28  A    between atoms: _60  and  _61
REMARK   29  A    between atoms: _60  and  _63
REMARK   30  A    between atoms: _63  and  _64
REMARK   31  A    between atoms: _69  and  _71
REMARK   32  A    between atoms: _71  and  _72
REMARK   33  A    between atoms: _71  and  _74
REMARK   34  A    between atoms: _74  and  _75
REMARK   35  A    between atoms: _78  and  _80
REMARK   36  A    between atoms: _80  and  _81
REMARK   37  A    between atoms: _83  and  _85
REMARK   38  A    between atoms: _85  and  _86
REMARK   39  A    between atoms: _85  and  _88
REMARK   40  A    between atoms: _88  and  _89
REMARK   41  A    between atoms: _91  and  _93
REMARK   42  A    between atoms: _93  and  _94
REMARK   43  A    between atoms: _97  and  _99
REMARK   44  A    between atoms: _99  and  _100
REMARK   45  A    between atoms: _102  and  _104
REMARK   46  A    between atoms: _104  and  _105
REMARK   47  A    between atoms: _107  and  _109
REMARK   48  A    between atoms: _109  and  _110
REMARK   49  A    between atoms: _109  and  _112
REMARK   50  A    between atoms: _112  and  _113
REMARK   51  A    between atoms: _116  and  _118
REMARK   52  A    between atoms: _118  and  _119
REMARK   53  A    between atoms: _118  and  _121
REMARK   54  A    between atoms: _121  and  _122
REMARK   55  A    between atoms: _127  and  _129
REMARK   56  A    between atoms: _129  and  _130
REMARK   57  A    between atoms: _129  and  _132
REMARK   58  A    between atoms: _135  and  _137
REMARK   59  A    between atoms: _137  and  _138
REMARK   60  A    between atoms: _137  and  _140
REMARK   61  A    between atoms: _140  and  _141
REMARK   62  A    between atoms: _143  and  _145
REMARK   63  A    between atoms: _145  and  _146
REMARK   64  A    between atoms: _148  and  _150
REMARK   65  A    between atoms: _150  and  _151
REMARK   66  A    between atoms: _150  and  _153
REMARK   67  A    between atoms: _153  and  _154
REMARK   68  A    between atoms: _157  and  _159
REMARK   69  A    between atoms: _159  and  _160
REMARK   70  A    between atoms: _163  and  _165
REMARK   71  A    between atoms: _165  and  _166
REMARK   72  A    between atoms: _165  and  _168
REMARK   73  A    between atoms: _168  and  _169
REMARK   74  A    between atoms: _175  and  _177
REMARK   75  A    between atoms: _177  and  _178
REMARK   76  A    between atoms: _177  and  _180
REMARK   77  A    between atoms: _180  and  _181
REMARK   78  A    between atoms: _184  and  _186
REMARK   79  A    between atoms: _186  and  _187
REMARK   80  A    between atoms: _186  and  _189
REMARK   81  A    between atoms: _189  and  _190
REMARK   82  A    between atoms: _195  and  _197
REMARK   83  A    between atoms: _197  and  _198
REMARK   84  A    between atoms: _200  and  _202
REMARK   85  A    between atoms: _202  and  _203
REMARK   86  A    between atoms: _202  and  _205
REMARK   87  A    between atoms: _205  and  _206
REMARK   88  A    between atoms: _209  and  _211
REMARK   89  A    between atoms: _211  and  _212
REMARK   90  A    between atoms: _211  and  _214
REMARK   91  A    between atoms: _214  and  _215
REMARK   92  A    between atoms: _218  and  _220
REMARK   93  A    between atoms: _220  and  _221
REMARK   94  A    between atoms: _224  and  _226
REMARK   95  A    between atoms: _226  and  _227
REMARK   96  A    between atoms: _226  and  _229
REMARK   97  A    between atoms: _232  and  _234
REMARK   98  A    between atoms: _234  and  _235
REMARK   99  A    between atoms: _234  and  _237
REMARK  100  A    between atoms: _237  and  _238
REMARK  101  A    between atoms: _238  and  _239
REMARK  102  A    between atoms: _242  and  _244
REMARK  103  A    between atoms: _244  and  _245
REMARK  104  A    between atoms: _244  and  _247
REMARK  105  A    between atoms: _247  and  _248
REMARK  106  A    between atoms: _248  and  _249
REMARK  107  A    between atoms: _251  and  _253
REMARK  108  A    between atoms: _253  and  _254
REMARK  109  A    between atoms: _253  and  _256
REMARK  110  A    between atoms: _256  and  _257
REMARK  111  A    between atoms: _257  and  _258
REMARK  112  A    between atoms: _261  and  _263
REMARK  113  A    between atoms: _263  and  _264
REMARK  114  A    between atoms: _267  and  _269
REMARK  115  A    between atoms: _269  and  _270
REMARK  116  A    between atoms: _269  and  _272
REMARK  117  A    between atoms: _272  and  _273
REMARK  118  A    between atoms: _273  and  _274
REMARK  119  A    between atoms: _274  and  _275
REMARK  120  A    between atoms: _284  and  _286
REMARK  121  A    between atoms: _286  and  _287
REMARK  122  A    between atoms: _290  and  _292
REMARK  123  A    between atoms: _292  and  _293
REMARK  124  A    between atoms: _292  and  _295
REMARK  125  A    between atoms: _295  and  _296
REMARK  126  A    between atoms: _299  and  _301
REMARK  127  A    between atoms: _301  and  _302
REMARK  128  A    between atoms: _301  and  _304
REMARK  129  A    between atoms: _304  and  _305
REMARK  130  A    between atoms: _307  and  _309
REMARK  131  A    between atoms: _309  and  _310
REMARK  132  A    between atoms: _309  and  _312
REMARK  133  A    between atoms: _312  and  _313
REMARK  134  A    between atoms: _316  and  _318
REMARK  135  A    between atoms: _318  and  _319
REMARK  136  A    between atoms: _318  and  _321
REMARK  137  A    between atoms: _324  and  _326
REMARK  138  A    between atoms: _326  and  _327
REMARK  139  A    between atoms: _330  and  _332
REMARK  140  A    between atoms: _332  and  _333
REMARK  141  A    between atoms: _332  and  _335
REMARK  142  A    between atoms: _335  and  _336
REMARK  143  A    between atoms: _339  and  _341
REMARK  144  A    between atoms: _341  and  _342
REMARK  145  A    between atoms: _341  and  _344
REMARK  146  A    between atoms: _344  and  _345
REMARK  147  A    between atoms: _345  and  _346
REMARK  148  A    between atoms: _351  and  _353
REMARK  149  A    between atoms: _353  and  _354
REMARK  150  A    between atoms: _353  and  _356
REMARK  151  A    between atoms: _356  and  _357
REMARK  152  A    between atoms: _359  and  _361
REMARK  153  A    between atoms: _361  and  _362
REMARK  154  A    between atoms: _361  and  _364
REMARK  155  A    between atoms: _364  and  _365
REMARK  156  A    between atoms: _370  and  _372
REMARK  157  A    between atoms: _372  and  _373
REMARK  158  A    between atoms: _372  and  _375
REMARK  159  A    between atoms: _375  and  _376
REMARK  160  A    between atoms: _378  and  _380
REMARK  161  A    between atoms: _380  and  _381
REMARK  162  A    between atoms: _380  and  _383
REMARK  163  A    between atoms: _383  and  _384
REMARK  164  A    between atoms: _390  and  _392
REMARK  165  A    between atoms: _392  and  _393
REMARK  166  A    between atoms: _392  and  _395
REMARK  167  A    between atoms: _395  and  _396
REMARK  168  A    between atoms: _399  and  _401
REMARK  169  A    between atoms: _401  and  _402
REMARK  170  A    between atoms: _401  and  _404
REMARK  171  A    between atoms: _404  and  _405
REMARK  172  A    between atoms: _408  and  _410
REMARK  173  A    between atoms: _410  and  _411
REMARK  174  A    between atoms: _414  and  _416
REMARK  175  A    between atoms: _416  and  _417
REMARK  176  A    between atoms: _416  and  _419
REMARK  177  A    between atoms: _419  and  _420
REMARK  178  A    between atoms: _423  and  _425
REMARK  179  A    between atoms: _425  and  _426
REMARK  180  A    between atoms: _425  and  _428
REMARK  181  A    between atoms: _431  and  _433
REMARK  182  A    between atoms: _433  and  _434
REMARK  183  A    between atoms: _437  and  _439
REMARK  184  A    between atoms: _439  and  _440
REMARK  185  A    between atoms: _439  and  _442
REMARK  186  A    between atoms: _442  and  _443
REMARK  187  A    between atoms: _449  and  _451
REMARK  188  A    between atoms: _451  and  _452
REMARK  189  A    between atoms: _451  and  _454
REMARK  190  A    between atoms: _454  and  _455
REMARK  191  A    between atoms: _460  and  _461
REMARK  192  A    between atoms: _463  and  _465
REMARK  193  A    between atoms: _465  and  _466
REMARK  194  A    between atoms: _465  and  _468
REMARK  195  A    between atoms: _468  and  _469
REMARK  196  A    between atoms: _473  and  _474
REMARK                            x       y       z     vdW  Elec       q    Type
REMARK                         _______ _______ _______ _____ _____    ______ ____
ROOT
ATOM      1  CA  SER A   4      58.557  72.064  12.614  0.00  0.00    +0.178 C 
ENDROOT
BRANCH   1   3
ATOM      2  C   ILE A   3      59.673  74.063  11.785  0.00  0.00    +0.241 C 
ATOM      3  N   SER A   4      58.785  73.503  12.591  0.00  0.00    -0.295 N 
ATOM      4  H   SER A   4      58.232  74.110  13.229  0.00  0.00    +0.150 HD
ATOM      5  O   ILE A   3      60.355  73.415  11.009  0.00  0.00    -0.273 OA
BRANCH   2   6
ATOM      6  CA  ILE A   3      59.799  75.586  11.888  0.00  0.00    +0.149 C 
BRANCH   6   9
ATOM      7  C   ALA A   2      61.885  75.957  13.127  0.00  0.00    +0.241 C 
ATOM      8  O   ALA A   2      61.468  75.375  14.120  0.00  0.00    -0.273 OA
ATOM      9  N   ILE A   3      61.165  76.091  12.019  0.00  0.00    -0.297 N 
ATOM     10  H   ILE A   3      61.593  76.578  11.206  0.00  0.00    +0.150 HD
BRANCH   7  11
ATOM     11  CA  ALA A   2      63.287  76.584  13.107  0.00  0.00    +0.149 C 
ATOM     12  CB  ALA A   2      64.337  75.564  12.582  0.00  0.00    +0.031 C 
BRANCH  11  14
ATOM     13  C   ARG A   1      64.156  78.273  14.652  0.00  0.00    +0.238 C 
ATOM     14  N   ALA A   2      63.668  77.051  14.446  0.00  0.00    -0.297 N 
ATOM     15  H   ALA A   2      63.554  76.409  15.256  0.00  0.00    +0.150 HD
ATOM     16  O   ARG A   1      64.334  79.101  13.738  0.00  0.00    -0.274 OA
BRANCH  13  17
ATOM     17  CA  ARG A   1      64.507  78.617  16.100  0.00  0.00    +0.145 C 
BRANCH  17  18
ATOM     18  N   ARG A   1      65.103  79.945  16.200  0.00  0.00    -0.238 NA
ATOM     19  H   ARG A   1      64.554  80.773  15.892  0.00  0.00    +0.142 HD
ENDBRANCH  17  18
BRANCH  17  20
ATOM     20  CB  ARG A   1      63.268  78.552  17.006  0.00  0.00    +0.030 C 
BRANCH  20  21
ATOM     21  CG  ARG A   1      63.606  78.480  18.514  0.00  0.00    +0.045 C 
BRANCH  21  22
ATOM     22  CD  ARG A   1      62.369  78.779  19.375  0.00  0.00    +0.174 C 
BRANCH  22  23
ATOM     23  NE  ARG A   1      62.557  78.678  20.831  0.00  0.00    -0.265 N 
ATOM     24  CZ  ARG A   1      62.358  77.561  21.533  0.00  0.00    +0.342 C 
ATOM     25  NH2 ARG A   1      62.462  77.560  22.862  0.00  0.00    -0.292 N 
ATOM     26 HH21 ARG A   1      62.304  76.681  23.395  0.00  0.00    +0.255 HD
ATOM     27 HH22 ARG A   1      62.701  78.438  23.366  0.00  0.00    +0.255 HD
ATOM     28  NH1 ARG A   1      61.987  76.448  20.912  0.00  0.00    -0.292 N 
ATOM     29 HH11 ARG A   1      61.831  75.576  21.457  0.00  0.00    +0.255 HD
ATOM     30 HH12 ARG A   1      61.852  76.448  19.881  0.00  0.00    +0.255 HD
ATOM     31  HE  ARG A   1      62.864  79.529  21.344  0.00  0.00    +0.259 HD
ENDBRANCH  22  23
ENDBRANCH  21  22
ENDBRANCH  20  21
ENDBRANCH  17  20
ENDBRANCH  13  17
ENDBRANCH  11  14
ENDBRANCH   7  11
ENDBRANCH   6   9
BRANCH   6  32
ATOM     32  CB  ILE A   3      59.107  76.263  10.670  0.00  0.00    +0.027 C 
ATOM     33  CG2 ILE A   3      57.651  75.827  10.551  0.00  0.00    +0.002 C 
BRANCH  32  34
ATOM     34  CG1 ILE A   3      59.182  77.781  10.834  0.00  0.00    +0.002 C 
ATOM     35  CD1 ILE A   3      58.745  78.274  12.211  0.00  0.00    +0.000 C 
ENDBRANCH  32  34
ENDBRANCH   6  32
ENDBRANCH   2   6
ENDBRANCH   1   3
BRANCH   1  36
ATOM     36  C   SER A   4      57.089  71.772  12.320  0.00  0.00    +0.243 C 
ATOM     37  N   ASP A   5      56.274  72.824  12.278  0.00  0.00    -0.296 N 
ATOM     38  H   ASP A   5      56.668  73.777  12.413  0.00  0.00    +0.150 HD
ATOM     39  O   SER A   4      56.706  70.613  12.131  0.00  0.00    -0.273 OA
BRANCH  37  40
ATOM     40  CA  ASP A   5      54.836  72.671  12.046  0.00  0.00    +0.160 C 
BRANCH  40  41
ATOM     41  C   ASP A   5      54.217  74.065  11.945  0.00  0.00    +0.241 C 
ATOM     42  O   ASP A   5      54.909  75.068  12.138  0.00  0.00    -0.273 OA
ATOM     43  N   VAL A   6      52.929  74.152  11.634  0.00  0.00    -0.297 N 
ATOM     44  H   VAL A   6      52.368  73.297  11.445  0.00  0.00    +0.150 HD
BRANCH  43  45
ATOM     45  CA  VAL A   6      52.316  75.481  11.564  0.00  0.00    +0.149 C 
BRANCH  45  46
ATOM     46  C   VAL A   6      51.181  75.682  12.555  0.00  0.00    +0.241 C 
ATOM     47  N   ALA A   7      51.266  74.984  13.684  0.00  0.00    -0.297 N 
ATOM     48  H   ALA A   7      52.063  74.325  13.796  0.00  0.00    +0.150 HD
ATOM     49  O   VAL A   6      50.259  76.451  12.307  0.00  0.00    -0.273 OA
BRANCH  47  50
ATOM     50  CA  ALA A   7      50.302  75.092  14.775  0.00  0.00    +0.149 C 
ATOM     51  CB  ALA A   7      50.472  76.435  15.457  0.00  0.00    +0.031 C 
BRANCH  50  52
ATOM     52  C   ALA A   7      48.826  74.870  14.436  0.00  0.00    +0.241 C 
ATOM     53  O   ALA A   7      47.928  75.305  15.179  0.00  0.00    -0.273 OA
ATOM     54  N   ASP A   8      48.566  74.194  13.323  0.00  0.00    -0.298 N 
ATOM     55  H   ASP A   8      49.347  73.863  12.721  0.00  0.00    +0.150 HD
BRANCH  54  56
ATOM     56  CA  ASP A   8      47.189  73.916  12.946  0.00  0.00    +0.148 C 
BRANCH  56  57
ATOM     57  C   ASP A   8      46.813  72.518  13.433  0.00  0.00    +0.227 C 
ATOM     58  O   ASP A   8      47.551  71.918  14.202  0.00  0.00    -0.286 OA
ENDBRANCH  56  57
BRANCH  56  59
ATOM     59  CB  ASP A   8      47.012  74.051  11.429  0.00  0.00    +0.142 C 
BRANCH  59  60
ATOM     60  CG  ASP A   8      47.878  73.096  10.651  0.00  0.00    +0.367 C 
ATOM     61  OD2 ASP A   8      48.498  72.194  11.263  0.00  0.00    -0.246 OA
ATOM     62  OD1 ASP A   8      47.928  73.249   9.411  0.00  0.00    -0.246 OA
ENDBRANCH  59  60
ENDBRANCH  56  59
ENDBRANCH  54  56
ENDBRANCH  50  52
ENDBRANCH  47  50
ENDBRANCH  45  46
BRANCH  45  63
ATOM     63  CB  VAL A   6      51.831  75.856  10.124  0.00  0.00    +0.027 C 
ATOM     64  CG2 VAL A   6      50.816  74.815   9.587  0.00  0.00    +0.002 C 
ATOM     65  CG1 VAL A   6      53.038  75.979   9.201  0.00  0.00    +0.002 C 
ENDBRANCH  45  63
ENDBRANCH  43  45
ENDBRANCH  40  41
BRANCH  40  66
ATOM     66  CB  ASP A   5      54.217  71.890  13.225  0.00  0.00    +0.143 C 
BRANCH  66  67
ATOM     67  CG  ASP A   5      54.391  72.618  14.569  0.00  0.00    +0.367 C 
ATOM     68  OD2 ASP A   5      55.369  72.319  15.286  0.00  0.00    -0.246 OA
ATOM     69  OD1 ASP A   5      53.563  73.503  14.905  0.00  0.00    -0.246 OA
ENDBRANCH  66  67
ENDBRANCH  40  66
ENDBRANCH  37  40
ENDBRANCH   1  36
BRANCH   1  70
ATOM     70  CB  SER A   4      58.902  71.510  13.996  0.00  0.00    +0.166 C 
BRANCH  70  71
ATOM     71  OG  SER A   4      58.150  72.183  15.002  0.00  0.00    -0.380 OA
ATOM     72  H   SER A   4      57.183  72.052  14.833  0.00  0.00    +0.211 HD
ENDBRANCH  70  71
ENDBRANCH   1  70
TORSDOF 29
REMARK  Name = ../refined-set-2016/1y6q/1y6q_pocket.pdb
REMARK  196 active torsions:
REMARK  status: ('A' for Active; 'I' for Inactive)
REMARK    1  A    between atoms: _1  and  _3
REMARK    2  A    between atoms: _3  and  _4
REMARK    3  A    between atoms: _6  and  _8
REMARK    4  A    between atoms: _8  and  _9
REMARK    5  A    between atoms: _12  and  _14
REMARK    6  A    between atoms: _14  and  _15
REMARK    7  A    between atoms: _14  and  _17
REMARK    8  A    between atoms: _17  and  _18
REMARK    9  A    between atoms: _18  and  _19
REMARK   10  A    between atoms: _21  and  _23
REMARK   11  A    between atoms: _23  and  _24
REMARK   12  A    between atoms: _23  and  _26
REMARK   13  A    between atoms: _26  and  _27
REMARK   14  A    between atoms: _27  and  _28
REMARK   15  A    between atoms: _31  and  _33
REMARK   16  A    between atoms: _33  and  _34
REMARK   17  A    between atoms: _33  and  _36
REMARK   18  A    between atoms: _36  and  _37
REMARK   19  A    between atoms: _39  and  _41
REMARK   20  A    between atoms: _41  and  _42
REMARK   21  A    between atoms: _44  and  _46
REMARK   22  A    between atoms: _46  and  _47
REMARK   23  A    between atoms: _46  and  _49
REMARK   24  A    between atoms: _49  and  _50
REMARK   25  A    between atoms: _53  and  _55
REMARK   26  A    between atoms: _55  and  _56
REMARK   27  A    between atoms: _58  and  _60
REMARK   28  A    between atoms: _60  and  _61
REMARK   29  A    between atoms: _60  and  _63
REMARK   30  A    between atoms: _63  and  _64
REMARK   31  A    between atoms: _69  and  _71
REMARK   32  A    between atoms: _71  and  _72
REMARK   33  A    between atoms: _71  and  _74
REMARK   34  A    between atoms: _74  and  _75
REMARK   35  A    between atoms: _78  and  _80
REMARK   36  A    between atoms: _80  and  _81
REMARK   37  A    between atoms: _83  and  _85
REMARK   38  A    between atoms: _85  and  _86
REMARK   39  A    between atoms: _85  and  _88
REMARK   40  A    between atoms: _88  and  _89
REMARK   41  A    between atoms: _91  and  _93
REMARK   42  A    between atoms: _93  and  _94
REMARK   43  A    between atoms: _97  and  _99
REMARK   44  A    between atoms: _99  and  _100
REMARK   45  A    between atoms: _102  and  _104
REMARK   46  A    between atoms: _104  and  _105
REMARK   47  A    between atoms: _107  and  _109
REMARK   48  A    between atoms: _109  and  _110
REMARK   49  A    between atoms: _109  and  _112
REMARK   50  A    between atoms: _112  and  _113
REMARK   51  A    between atoms: _116  and  _118
REMARK   52  A    between atoms: _118  and  _119
REMARK   53  A    between atoms: _118  and  _121
REMARK   54  A    between atoms: _121  and  _122
REMARK   55  A    between atoms: _127  and  _129
REMARK   56  A    between atoms: _129  and  _130
REMARK   57  A    between atoms: _129  and  _132
REMARK   58  A    between atoms: _135  and  _137
REMARK   59  A    between atoms: _137  and  _138
REMARK   60  A    between atoms: _137  and  _140
REMARK   61  A    between atoms: _140  and  _141
REMARK   62  A    between atoms: _143  and  _145
REMARK   63  A    between atoms: _145  and  _146
REMARK   64  A    between atoms: _148  and  _150
REMARK   65  A    between atoms: _150  and  _151
REMARK   66  A    between atoms: _150  and  _153
REMARK   67  A    between atoms: _153  and  _154
REMARK   68  A    between atoms: _157  and  _159
REMARK   69  A    between atoms: _159  and  _160
REMARK   70  A    between atoms: _163  and  _165
REMARK   71  A    between atoms: _165  and  _166
REMARK   72  A    between atoms: _165  and  _168
REMARK   73  A    between atoms: _168  and  _169
REMARK   74  A    between atoms: _175  and  _177
REMARK   75  A    between atoms: _177  and  _178
REMARK   76  A    between atoms: _177  and  _180
REMARK   77  A    between atoms: _180  and  _181
REMARK   78  A    between atoms: _184  and  _186
REMARK   79  A    between atoms: _186  and  _187
REMARK   80  A    between atoms: _186  and  _189
REMARK   81  A    between atoms: _189  and  _190
REMARK   82  A    between atoms: _195  and  _197
REMARK   83  A    between atoms: _197  and  _198
REMARK   84  A    between atoms: _200  and  _202
REMARK   85  A    between atoms: _202  and  _203
REMARK   86  A    between atoms: _202  and  _205
REMARK   87  A    between atoms: _205  and  _206
REMARK   88  A    between atoms: _209  and  _211
REMARK   89  A    between atoms: _211  and  _212
REMARK   90  A    between atoms: _211  and  _214
REMARK   91  A    between atoms: _214  and  _215
REMARK   92  A    between atoms: _218  and  _220
REMARK   93  A    between atoms: _220  and  _221
REMARK   94  A    between atoms: _224  and  _226
REMARK   95  A    between atoms: _226  and  _227
REMARK   96  A    between atoms: _226  and  _229
REMARK   97  A    between atoms: _232  and  _234
REMARK   98  A    between atoms: _234  and  _235
REMARK   99  A    between atoms: _234  and  _237
REMARK  100  A    between atoms: _237  and  _238
REMARK  101  A    between atoms: _238  and  _239
REMARK  102  A    between atoms: _242  and  _244
REMARK  103  A    between atoms: _244  and  _245
REMARK  104  A    between atoms: _244  and  _247
REMARK  105  A    between atoms: _247  and  _248
REMARK  106  A    between atoms: _248  and  _249
REMARK  107  A    between atoms: _251  and  _253
REMARK  108  A    between atoms: _253  and  _254
REMARK  109  A    between atoms: _253  and  _256
REMARK  110  A    between atoms: _256  and  _257
REMARK  111  A    between atoms: _257  and  _258
REMARK  112  A    between atoms: _261  and  _263
REMARK  113  A    between atoms: _263  and  _264
REMARK  114  A    between atoms: _267  and  _269
REMARK  115  A    between atoms: _269  and  _270
REMARK  116  A    between atoms: _269  and  _272
REMARK  117  A    between atoms: _272  and  _273
REMARK  118  A    between atoms: _273  and  _274
REMARK  119  A    between atoms: _274  and  _275
REMARK  120  A    between atoms: _284  and  _286
REMARK  121  A    between atoms: _286  and  _287
REMARK  122  A    between atoms: _290  and  _292
REMARK  123  A    between atoms: _292  and  _293
REMARK  124  A    between atoms: _292  and  _295
REMARK  125  A    between atoms: _295  and  _296
REMARK  126  A    between atoms: _299  and  _301
REMARK  127  A    between atoms: _301  and  _302
REMARK  128  A    between atoms: _301  and  _304
REMARK  129  A    between atoms: _304  and  _305
REMARK  130  A    between atoms: _307  and  _309
REMARK  131  A    between atoms: _309  and  _310
REMARK  132  A    between atoms: _309  and  _312
REMARK  133  A    between atoms: _312  and  _313
REMARK  134  A    between atoms: _316  and  _318
REMARK  135  A    between atoms: _318  and  _319
REMARK  136  A    between atoms: _318  and  _321
REMARK  137  A    between atoms: _324  and  _326
REMARK  138  A    between atoms: _326  and  _327
REMARK  139  A    between atoms: _330  and  _332
REMARK  140  A    between atoms: _332  and  _333
REMARK  141  A    between atoms: _332  and  _335
REMARK  142  A    between atoms: _335  and  _336
REMARK  143  A    between atoms: _339  and  _341
REMARK  144  A    between atoms: _341  and  _342
REMARK  145  A    between atoms: _341  and  _344
REMARK  146  A    between atoms: _344  and  _345
REMARK  147  A    between atoms: _345  and  _346
REMARK  148  A    between atoms: _351  and  _353
REMARK  149  A    between atoms: _353  and  _354
REMARK  150  A    between atoms: _353  and  _356
REMARK  151  A    between atoms: _356  and  _357
REMARK  152  A    between atoms: _359  and  _361
REMARK  153  A    between atoms: _361  and  _362
REMARK  154  A    between atoms: _361  and  _364
REMARK  155  A    between atoms: _364  and  _365
REMARK  156  A    between atoms: _370  and  _372
REMARK  157  A    between atoms: _372  and  _373
REMARK  158  A    between atoms: _372  and  _375
REMARK  159  A    between atoms: _375  and  _376
REMARK  160  A    between atoms: _378  and  _380
REMARK  161  A    between atoms: _380  and  _381
REMARK  162  A    between atoms: _380  and  _383
REMARK  163  A    between atoms: _383  and  _384
REMARK  164  A    between atoms: _390  and  _392
REMARK  165  A    between atoms: _392  and  _393
REMARK  166  A    between atoms: _392  and  _395
REMARK  167  A    between atoms: _395  and  _396
REMARK  168  A    between atoms: _399  and  _401
REMARK  169  A    between atoms: _401  and  _402
REMARK  170  A    between atoms: _401  and  _404
REMARK  171  A    between atoms: _404  and  _405
REMARK  172  A    between atoms: _408  and  _410
REMARK  173  A    between atoms: _410  and  _411
REMARK  174  A    between atoms: _414  and  _416
REMARK  175  A    between atoms: _416  and  _417
REMARK  176  A    between atoms: _416  and  _419
REMARK  177  A    between atoms: _419  and  _420
REMARK  178  A    between atoms: _423  and  _425
REMARK  179  A    between atoms: _425  and  _426
REMARK  180  A    between atoms: _425  and  _428
REMARK  181  A    between atoms: _431  and  _433
REMARK  182  A    between atoms: _433  and  _434
REMARK  183  A    between atoms: _437  and  _439
REMARK  184  A    between atoms: _439  and  _440
REMARK  185  A    between atoms: _439  and  _442
REMARK  186  A    between atoms: _442  and  _443
REMARK  187  A    between atoms: _449  and  _451
REMARK  188  A    between atoms: _451  and  _452
REMARK  189  A    between atoms: _451  and  _454
REMARK  190  A    between atoms: _454  and  _455
REMARK  191  A    between atoms: _460  and  _461
REMARK  192  A    between atoms: _463  and  _465
REMARK  193  A    between atoms: _465  and  _466
REMARK  194  A    between atoms: _465  and  _468
REMARK  195  A    between atoms: _468  and  _469
REMARK  196  A    between atoms: _473  and  _474
REMARK                            x       y       z     vdW  Elec       q    Type
REMARK                         _______ _______ _______ _____ _____    ______ ____
ROOT
ATOM      1  CA  SER A   2      50.803  70.354  14.057  0.00  0.00    +0.178 C 
ENDROOT
BRANCH   1   3
ATOM      2  C   GLN A   1      49.436  68.840  12.751  0.00  0.00    +0.238 C 
ATOM      3  N   SER A   2      49.527  69.920  13.520  0.00  0.00    -0.295 N 
ATOM      4  H   SER A   2      48.668  70.464  13.741  0.00  0.00    +0.150 HD
ATOM      5  O   GLN A   1      50.403  68.132  12.473  0.00  0.00    -0.274 OA
BRANCH   2   6
ATOM      6  CA  GLN A   1      48.050  68.495  12.224  0.00  0.00    +0.145 C 
BRANCH   6   7
ATOM      7  N   GLN A   1      47.109  69.602  12.383  0.00  0.00    -0.238 NA
ATOM      8  H   GLN A   1      47.242  70.478  11.838  0.00  0.00    +0.142 HD
ENDBRANCH   6   7
BRANCH   6   9
ATOM      9  CB  GLN A   1      48.177  68.066  10.757  0.00  0.00    +0.036 C 
BRANCH   9  10
ATOM     10  CG  GLN A   1      47.948  69.172   9.747  0.00  0.00    +0.087 C 
BRANCH  10  11
ATOM     11  CD  GLN A   1      46.550  69.102   9.168  0.00  0.00    +0.219 C 
ATOM     12  NE2 GLN A   1      45.917  67.937   9.310  0.00  0.00    -0.329 N 
ATOM     13 HE21 GLN A   1      46.386  67.146   9.797  0.00  0.00    +0.145 HD
ATOM     14 HE22 GLN A   1      44.955  67.819   8.934  0.00  0.00    +0.145 HD
ATOM     15  OE1 GLN A   1      46.040  70.075   8.598  0.00  0.00    -0.275 OA
ENDBRANCH  10  11
ENDBRANCH   9  10
ENDBRANCH   6   9
ENDBRANCH   2   6
ENDBRANCH   1   3
BRANCH   1  16
ATOM     16  C   SER A   2      51.508  69.238  14.840  0.00  0.00    +0.243 C 
ATOM     17  N   HIS A   3      50.730  68.391  15.502  0.00  0.00    -0.298 N 
ATOM     18  H   HIS A   3      49.699  68.524  15.469  0.00  0.00    +0.150 HD
ATOM     19  O   SER A   2      52.736  69.151  14.843  0.00  0.00    -0.273 OA
BRANCH  17  20
ATOM     20  CA  HIS A   3      51.275  67.278  16.276  0.00  0.00    +0.143 C 
BRANCH  20  21
ATOM     21  C   HIS A   3      51.912  66.203  15.358  0.00  0.00    +0.227 C 
ATOM     22  O   HIS A   3      52.968  65.628  15.676  0.00  0.00    -0.286 OA
ENDBRANCH  20  21
BRANCH  20  23
ATOM     23  CB  HIS A   3      50.148  66.705  17.147  0.00  0.00    +0.075 C 
BRANCH  23  24
ATOM     24  CG  HIS A   3      50.419  65.339  17.695  0.00  0.00    +0.082 A 
ATOM     25  ND1 HIS A   3      51.647  64.960  18.193  0.00  0.00    -0.227 NA
ATOM     26  CE1 HIS A   3      51.570  63.729  18.667  0.00  0.00    +0.199 A 
ATOM     27  NE2 HIS A   3      50.335  63.294  18.494  0.00  0.00    -0.221 NA
ATOM     28  CD2 HIS A   3      49.595  64.281  17.883  0.00  0.00    +0.115 A 
ENDBRANCH  23  24
ENDBRANCH  20  23
ENDBRANCH  17  20
ENDBRANCH   1  16
BRANCH   1  29
ATOM     29  CB  SER A   2      50.595  71.580  14.946  0.00  0.00    +0.166 C 
BRANCH  29  30
ATOM     30  OG  SER A   2      49.910  71.235  16.134  0.00  0.00    -0.380 OA
ATOM     31  H   SER A   2      49.025  70.855  15.905  0.00  0.00    +0.211 HD
ENDBRANCH  29  30
ENDBRANCH   1  29
TORSDOF 13
REMARK  Name = ../refined-set-2016/1y6q/1y6q_pocket.pdb
REMARK  196 active torsions:
REMARK  status: ('A' for Active; 'I' for Inactive)
REMARK    1  A    between atoms: _1  and  _3
REMARK    2  A    between atoms: _3  and  _4
REMARK    3  A    between atoms: _6  and  _8
REMARK    4  A    between atoms: _8  and  _9
REMARK    5  A    between atoms: _12  and  _14
REMARK    6  A    between atoms: _14  and  _15
REMARK    7  A    between atoms: _14  and  _17
REMARK    8  A    between atoms: _17  and  _18
REMARK    9  A    between atoms: _18  and  _19
REMARK   10  A    between atoms: _21  and  _23
REMARK   11  A    between atoms: _23  and  _24
REMARK   12  A    between atoms: _23  and  _26
REMARK   13  A    between atoms: _26  and  _27
REMARK   14  A    between atoms: _27  and  _28
REMARK   15  A    between atoms: _31  and  _33
REMARK   16  A    between atoms: _33  and  _34
REMARK   17  A    between atoms: _33  and  _36
REMARK   18  A    between atoms: _36  and  _37
REMARK   19  A    between atoms: _39  and  _41
REMARK   20  A    between atoms: _41  and  _42
REMARK   21  A    between atoms: _44  and  _46
REMARK   22  A    between atoms: _46  and  _47
REMARK   23  A    between atoms: _46  and  _49
REMARK   24  A    between atoms: _49  and  _50
REMARK   25  A    between atoms: _53  and  _55
REMARK   26  A    between atoms: _55  and  _56
REMARK   27  A    between atoms: _58  and  _60
REMARK   28  A    between atoms: _60  and  _61
REMARK   29  A    between atoms: _60  and  _63
REMARK   30  A    between atoms: _63  and  _64
REMARK   31  A    between atoms: _69  and  _71
REMARK   32  A    between atoms: _71  and  _72
REMARK   33  A    between atoms: _71  and  _74
REMARK   34  A    between atoms: _74  and  _75
REMARK   35  A    between atoms: _78  and  _80
REMARK   36  A    between atoms: _80  and  _81
REMARK   37  A    between atoms: _83  and  _85
REMARK   38  A    between atoms: _85  and  _86
REMARK   39  A    between atoms: _85  and  _88
REMARK   40  A    between atoms: _88  and  _89
REMARK   41  A    between atoms: _91  and  _93
REMARK   42  A    between atoms: _93  and  _94
REMARK   43  A    between atoms: _97  and  _99
REMARK   44  A    between atoms: _99  and  _100
REMARK   45  A    between atoms: _102  and  _104
REMARK   46  A    between atoms: _104  and  _105
REMARK   47  A    between atoms: _107  and  _109
REMARK   48  A    between atoms: _109  and  _110
REMARK   49  A    between atoms: _109  and  _112
REMARK   50  A    between atoms: _112  and  _113
REMARK   51  A    between atoms: _116  and  _118
REMARK   52  A    between atoms: _118  and  _119
REMARK   53  A    between atoms: _118  and  _121
REMARK   54  A    between atoms: _121  and  _122
REMARK   55  A    between atoms: _127  and  _129
REMARK   56  A    between atoms: _129  and  _130
REMARK   57  A    between atoms: _129  and  _132
REMARK   58  A    between atoms: _135  and  _137
REMARK   59  A    between atoms: _137  and  _138
REMARK   60  A    between atoms: _137  and  _140
REMARK   61  A    between atoms: _140  and  _141
REMARK   62  A    between atoms: _143  and  _145
REMARK   63  A    between atoms: _145  and  _146
REMARK   64  A    between atoms: _148  and  _150
REMARK   65  A    between atoms: _150  and  _151
REMARK   66  A    between atoms: _150  and  _153
REMARK   67  A    between atoms: _153  and  _154
REMARK   68  A    between atoms: _157  and  _159
REMARK   69  A    between atoms: _159  and  _160
REMARK   70  A    between atoms: _163  and  _165
REMARK   71  A    between atoms: _165  and  _166
REMARK   72  A    between atoms: _165  and  _168
REMARK   73  A    between atoms: _168  and  _169
REMARK   74  A    between atoms: _175  and  _177
REMARK   75  A    between atoms: _177  and  _178
REMARK   76  A    between atoms: _177  and  _180
REMARK   77  A    between atoms: _180  and  _181
REMARK   78  A    between atoms: _184  and  _186
REMARK   79  A    between atoms: _186  and  _187
REMARK   80  A    between atoms: _186  and  _189
REMARK   81  A    between atoms: _189  and  _190
REMARK   82  A    between atoms: _195  and  _197
REMARK   83  A    between atoms: _197  and  _198
REMARK   84  A    between atoms: _200  and  _202
REMARK   85  A    between atoms: _202  and  _203
REMARK   86  A    between atoms: _202  and  _205
REMARK   87  A    between atoms: _205  and  _206
REMARK   88  A    between atoms: _209  and  _211
REMARK   89  A    between atoms: _211  and  _212
REMARK   90  A    between atoms: _211  and  _214
REMARK   91  A    between atoms: _214  and  _215
REMARK   92  A    between atoms: _218  and  _220
REMARK   93  A    between atoms: _220  and  _221
REMARK   94  A    between atoms: _224  and  _226
REMARK   95  A    between atoms: _226  and  _227
REMARK   96  A    between atoms: _226  and  _229
REMARK   97  A    between atoms: _232  and  _234
REMARK   98  A    between atoms: _234  and  _235
REMARK   99  A    between atoms: _234  and  _237
REMARK  100  A    between atoms: _237  and  _238
REMARK  101  A    between atoms: _238  and  _239
REMARK  102  A    between atoms: _242  and  _244
REMARK  103  A    between atoms: _244  and  _245
REMARK  104  A    between atoms: _244  and  _247
REMARK  105  A    between atoms: _247  and  _248
REMARK  106  A    between atoms: _248  and  _249
REMARK  107  A    between atoms: _251  and  _253
REMARK  108  A    between atoms: _253  and  _254
REMARK  109  A    between atoms: _253  and  _256
REMARK  110  A    between atoms: _256  and  _257
REMARK  111  A    between atoms: _257  and  _258
REMARK  112  A    between atoms: _261  and  _263
REMARK  113  A    between atoms: _263  and  _264
REMARK  114  A    between atoms: _267  and  _269
REMARK  115  A    between atoms: _269  and  _270
REMARK  116  A    between atoms: _269  and  _272
REMARK  117  A    between atoms: _272  and  _273
REMARK  118  A    between atoms: _273  and  _274
REMARK  119  A    between atoms: _274  and  _275
REMARK  120  A    between atoms: _284  and  _286
REMARK  121  A    between atoms: _286  and  _287
REMARK  122  A    between atoms: _290  and  _292
REMARK  123  A    between atoms: _292  and  _293
REMARK  124  A    between atoms: _292  and  _295
REMARK  125  A    between atoms: _295  and  _296
REMARK  126  A    between atoms: _299  and  _301
REMARK  127  A    between atoms: _301  and  _302
REMARK  128  A    between atoms: _301  and  _304
REMARK  129  A    between atoms: _304  and  _305
REMARK  130  A    between atoms: _307  and  _309
REMARK  131  A    between atoms: _309  and  _310
REMARK  132  A    between atoms: _309  and  _312
REMARK  133  A    between atoms: _312  and  _313
REMARK  134  A    between atoms: _316  and  _318
REMARK  135  A    between atoms: _318  and  _319
REMARK  136  A    between atoms: _318  and  _321
REMARK  137  A    between atoms: _324  and  _326
REMARK  138  A    between atoms: _326  and  _327
REMARK  139  A    between atoms: _330  and  _332
REMARK  140  A    between atoms: _332  and  _333
REMARK  141  A    between atoms: _332  and  _335
REMARK  142  A    between atoms: _335  and  _336
REMARK  143  A    between atoms: _339  and  _341
REMARK  144  A    between atoms: _341  and  _342
REMARK  145  A    between atoms: _341  and  _344
REMARK  146  A    between atoms: _344  and  _345
REMARK  147  A    between atoms: _345  and  _346
REMARK  148  A    between atoms: _351  and  _353
REMARK  149  A    between atoms: _353  and  _354
REMARK  150  A    between atoms: _353  and  _356
REMARK  151  A    between atoms: _356  and  _357
REMARK  152  A    between atoms: _359  and  _361
REMARK  153  A    between atoms: _361  and  _362
REMARK  154  A    between atoms: _361  and  _364
REMARK  155  A    between atoms: _364  and  _365
REMARK  156  A    between atoms: _370  and  _372
REMARK  157  A    between atoms: _372  and  _373
REMARK  158  A    between atoms: _372  and  _375
REMARK  159  A    between atoms: _375  and  _376
REMARK  160  A    between atoms: _378  and  _380
REMARK  161  A    between atoms: _380  and  _381
REMARK  162  A    between atoms: _380  and  _383
REMARK  163  A    between atoms: _383  and  _384
REMARK  164  A    between atoms: _390  and  _392
REMARK  165  A    between atoms: _392  and  _393
REMARK  166  A    between atoms: _392  and  _395
REMARK  167  A    between atoms: _395  and  _396
REMARK  168  A    between atoms: _399  and  _401
REMARK  169  A    between atoms: _401  and  _402
REMARK  170  A    between atoms: _401  and  _404
REMARK  171  A    between atoms: _404  and  _405
REMARK  172  A    between atoms: _408  and  _410
REMARK  173  A    between atoms: _410  and  _411
REMARK  174  A    between atoms: _414  and  _416
REMARK  175  A    between atoms: _416  and  _417
REMARK  176  A    between atoms: _416  and  _419
REMARK  177  A    between atoms: _419  and  _420
REMARK  178  A    between atoms: _423  and  _425
REMARK  179  A    between atoms: _425  and  _426
REMARK  180  A    between atoms: _425  and  _428
REMARK  181  A    between atoms: _431  and  _433
REMARK  182  A    between atoms: _433  and  _434
REMARK  183  A    between atoms: _437  and  _439
REMARK  184  A    between atoms: _439  and  _440
REMARK  185  A    between atoms: _439  and  _442
REMARK  186  A    between atoms: _442  and  _443
REMARK  187  A    between atoms: _449  and  _451
REMARK  188  A    between atoms: _451  and  _452
REMARK  189  A    between atoms: _451  and  _454
REMARK  190  A    between atoms: _454  and  _455
REMARK  191  A    between atoms: _460  and  _461
REMARK  192  A    between atoms: _463  and  _465
REMARK  193  A    between atoms: _465  and  _466
REMARK  194  A    between atoms: _465  and  _468
REMARK  195  A    between atoms: _468  and  _469
REMARK  196  A    between atoms: _473  and  _474
REMARK                            x       y       z     vdW  Elec       q    Type
REMARK                         _______ _______ _______ _____ _____    ______ ____
ROOT
ATOM      1  CA  PHE A   2      55.975  67.863  14.705  0.00  0.00    +0.153 C 
ENDROOT
BRANCH   1   3
ATOM      2  C   SER A   1      55.159  67.556  12.413  0.00  0.00    +0.241 C 
ATOM      3  N   PHE A   2      54.909  67.812  13.703  0.00  0.00    -0.297 N 
ATOM      4  H   PHE A   2      53.927  67.980  14.003  0.00  0.00    +0.150 HD
ATOM      5  O   SER A   1      56.284  67.323  11.974  0.00  0.00    -0.274 OA
BRANCH   2   6
ATOM      6  CA  SER A   1      53.957  67.520  11.477  0.00  0.00    +0.174 C 
BRANCH   6   7
ATOM      7  N   SER A   1      52.870  66.832  12.148  0.00  0.00    -0.236 NA
ATOM      8  H   SER A   1      51.973  67.330  12.316  0.00  0.00    +0.142 HD
ENDBRANCH   6   7
BRANCH   6   9
ATOM      9  CB  SER A   1      53.529  68.929  11.090  0.00  0.00    +0.163 C 
BRANCH   9  10
ATOM     10  OG  SER A   1      54.618  69.643  10.547  0.00  0.00    -0.380 OA
ATOM     11  H   SER A   1      55.343  69.699  11.219  0.00  0.00    +0.211 HD
ENDBRANCH   9  10
ENDBRANCH   6   9
ENDBRANCH   2   6
ENDBRANCH   1   3
BRANCH   1  12
ATOM     12  C   PHE A   2      56.730  66.531  14.734  0.00  0.00    +0.241 C 
ATOM     13  N   ASP A   3      55.999  65.415  14.785  0.00  0.00    -0.298 N 
ATOM     14  H   ASP A   3      54.962  65.489  14.824  0.00  0.00    +0.150 HD
ATOM     15  O   PHE A   2      57.961  66.521  14.698  0.00  0.00    -0.273 OA
BRANCH  13  16
ATOM     16  CA  ASP A   3      56.625  64.081  14.788  0.00  0.00    +0.148 C 
BRANCH  16  17
ATOM     17  C   ASP A   3      57.524  63.851  13.577  0.00  0.00    +0.227 C 
ATOM     18  O   ASP A   3      58.604  63.263  13.692  0.00  0.00    -0.286 OA
ENDBRANCH  16  17
BRANCH  16  19
ATOM     19  CB  ASP A   3      55.561  62.985  14.809  0.00  0.00    +0.142 C 
BRANCH  19  20
ATOM     20  CG  ASP A   3      54.899  62.849  16.156  0.00  0.00    +0.367 C 
ATOM     21  OD2 ASP A   3      55.440  63.407  17.141  0.00  0.00    -0.246 OA
ATOM     22  OD1 ASP A   3      53.843  62.180  16.230  0.00  0.00    -0.246 OA
ENDBRANCH  19  20
ENDBRANCH  16  19
ENDBRANCH  13  16
ENDBRANCH   1  12
BRANCH   1  23
ATOM     23  CB  PHE A   2      55.408  68.180  16.098  0.00  0.00    +0.055 C 
BRANCH  23  24
ATOM     24  CG  PHE A   2      56.460  68.352  17.159  0.00  0.00    -0.020 A 
ATOM     25  CD2 PHE A   2      56.775  67.308  18.026  0.00  0.00    -0.004 A 
ATOM     26  CE2 PHE A   2      57.763  67.463  19.010  0.00  0.00    -0.000 A 
ATOM     27  CZ  PHE A   2      58.442  68.676  19.127  0.00  0.00    -0.000 A 
ATOM     28  CE1 PHE A   2      58.136  69.725  18.267  0.00  0.00    -0.000 A 
ATOM     29  CD1 PHE A   2      57.148  69.558  17.288  0.00  0.00    -0.004 A 
ENDBRANCH  23  24
ENDBRANCH   1  23
TORSDOF 12
REMARK  Name = ../refined-set-2016/1y6q/1y6q_pocket.pdb
REMARK  196 active torsions:
REMARK  status: ('A' for Active; 'I' for Inactive)
REMARK    1  A    between atoms: _1  and  _3
REMARK    2  A    between atoms: _3  and  _4
REMARK    3  A    between atoms: _6  and  _8
REMARK    4  A    between atoms: _8  and  _9
REMARK    5  A    between atoms: _12  and  _14
REMARK    6  A    between atoms: _14  and  _15
REMARK    7  A    between atoms: _14  and  _17
REMARK    8  A    between atoms: _17  and  _18
REMARK    9  A    between atoms: _18  and  _19
REMARK   10  A    between atoms: _21  and  _23
REMARK   11  A    between atoms: _23  and  _24
REMARK   12  A    between atoms: _23  and  _26
REMARK   13  A    between atoms: _26  and  _27
REMARK   14  A    between atoms: _27  and  _28
REMARK   15  A    between atoms: _31  and  _33
REMARK   16  A    between atoms: _33  and  _34
REMARK   17  A    between atoms: _33  and  _36
REMARK   18  A    between atoms: _36  and  _37
REMARK   19  A    between atoms: _39  and  _41
REMARK   20  A    between atoms: _41  and  _42
REMARK   21  A    between atoms: _44  and  _46
REMARK   22  A    between atoms: _46  and  _47
REMARK   23  A    between atoms: _46  and  _49
REMARK   24  A    between atoms: _49  and  _50
REMARK   25  A    between atoms: _53  and  _55
REMARK   26  A    between atoms: _55  and  _56
REMARK   27  A    between atoms: _58  and  _60
REMARK   28  A    between atoms: _60  and  _61
REMARK   29  A    between atoms: _60  and  _63
REMARK   30  A    between atoms: _63  and  _64
REMARK   31  A    between atoms: _69  and  _71
REMARK   32  A    between atoms: _71  and  _72
REMARK   33  A    between atoms: _71  and  _74
REMARK   34  A    between atoms: _74  and  _75
REMARK   35  A    between atoms: _78  and  _80
REMARK   36  A    between atoms: _80  and  _81
REMARK   37  A    between atoms: _83  and  _85
REMARK   38  A    between atoms: _85  and  _86
REMARK   39  A    between atoms: _85  and  _88
REMARK   40  A    between atoms: _88  and  _89
REMARK   41  A    between atoms: _91  and  _93
REMARK   42  A    between atoms: _93  and  _94
REMARK   43  A    between atoms: _97  and  _99
REMARK   44  A    between atoms: _99  and  _100
REMARK   45  A    between atoms: _102  and  _104
REMARK   46  A    between atoms: _104  and  _105
REMARK   47  A    between atoms: _107  and  _109
REMARK   48  A    between atoms: _109  and  _110
REMARK   49  A    between atoms: _109  and  _112
REMARK   50  A    between atoms: _112  and  _113
REMARK   51  A    between atoms: _116  and  _118
REMARK   52  A    between atoms: _118  and  _119
REMARK   53  A    between atoms: _118  and  _121
REMARK   54  A    between atoms: _121  and  _122
REMARK   55  A    between atoms: _127  and  _129
REMARK   56  A    between atoms: _129  and  _130
REMARK   57  A    between atoms: _129  and  _132
REMARK   58  A    between atoms: _135  and  _137
REMARK   59  A    between atoms: _137  and  _138
REMARK   60  A    between atoms: _137  and  _140
REMARK   61  A    between atoms: _140  and  _141
REMARK   62  A    between atoms: _143  and  _145
REMARK   63  A    between atoms: _145  and  _146
REMARK   64  A    between atoms: _148  and  _150
REMARK   65  A    between atoms: _150  and  _151
REMARK   66  A    between atoms: _150  and  _153
REMARK   67  A    between atoms: _153  and  _154
REMARK   68  A    between atoms: _157  and  _159
REMARK   69  A    between atoms: _159  and  _160
REMARK   70  A    between atoms: _163  and  _165
REMARK   71  A    between atoms: _165  and  _166
REMARK   72  A    between atoms: _165  and  _168
REMARK   73  A    between atoms: _168  and  _169
REMARK   74  A    between atoms: _175  and  _177
REMARK   75  A    between atoms: _177  and  _178
REMARK   76  A    between atoms: _177  and  _180
REMARK   77  A    between atoms: _180  and  _181
REMARK   78  A    between atoms: _184  and  _186
REMARK   79  A    between atoms: _186  and  _187
REMARK   80  A    between atoms: _186  and  _189
REMARK   81  A    between atoms: _189  and  _190
REMARK   82  A    between atoms: _195  and  _197
REMARK   83  A    between atoms: _197  and  _198
REMARK   84  A    between atoms: _200  and  _202
REMARK   85  A    between atoms: _202  and  _203
REMARK   86  A    between atoms: _202  and  _205
REMARK   87  A    between atoms: _205  and  _206
REMARK   88  A    between atoms: _209  and  _211
REMARK   89  A    between atoms: _211  and  _212
REMARK   90  A    between atoms: _211  and  _214
REMARK   91  A    between atoms: _214  and  _215
REMARK   92  A    between atoms: _218  and  _220
REMARK   93  A    between atoms: _220  and  _221
REMARK   94  A    between atoms: _224  and  _226
REMARK   95  A    between atoms: _226  and  _227
REMARK   96  A    between atoms: _226  and  _229
REMARK   97  A    between atoms: _232  and  _234
REMARK   98  A    between atoms: _234  and  _235
REMARK   99  A    between atoms: _234  and  _237
REMARK  100  A    between atoms: _237  and  _238
REMARK  101  A    between atoms: _238  and  _239
REMARK  102  A    between atoms: _242  and  _244
REMARK  103  A    between atoms: _244  and  _245
REMARK  104  A    between atoms: _244  and  _247
REMARK  105  A    between atoms: _247  and  _248
REMARK  106  A    between atoms: _248  and  _249
REMARK  107  A    between atoms: _251  and  _253
REMARK  108  A    between atoms: _253  and  _254
REMARK  109  A    between atoms: _253  and  _256
REMARK  110  A    between atoms: _256  and  _257
REMARK  111  A    between atoms: _257  and  _258
REMARK  112  A    between atoms: _261  and  _263
REMARK  113  A    between atoms: _263  and  _264
REMARK  114  A    between atoms: _267  and  _269
REMARK  115  A    between atoms: _269  and  _270
REMARK  116  A    between atoms: _269  and  _272
REMARK  117  A    between atoms: _272  and  _273
REMARK  118  A    between atoms: _273  and  _274
REMARK  119  A    between atoms: _274  and  _275
REMARK  120  A    between atoms: _284  and  _286
REMARK  121  A    between atoms: _286  and  _287
REMARK  122  A    between atoms: _290  and  _292
REMARK  123  A    between atoms: _292  and  _293
REMARK  124  A    between atoms: _292  and  _295
REMARK  125  A    between atoms: _295  and  _296
REMARK  126  A    between atoms: _299  and  _301
REMARK  127  A    between atoms: _301  and  _302
REMARK  128  A    between atoms: _301  and  _304
REMARK  129  A    between atoms: _304  and  _305
REMARK  130  A    between atoms: _307  and  _309
REMARK  131  A    between atoms: _309  and  _310
REMARK  132  A    between atoms: _309  and  _312
REMARK  133  A    between atoms: _312  and  _313
REMARK  134  A    between atoms: _316  and  _318
REMARK  135  A    between atoms: _318  and  _319
REMARK  136  A    between atoms: _318  and  _321
REMARK  137  A    between atoms: _324  and  _326
REMARK  138  A    between atoms: _326  and  _327
REMARK  139  A    between atoms: _330  and  _332
REMARK  140  A    between atoms: _332  and  _333
REMARK  141  A    between atoms: _332  and  _335
REMARK  142  A    between atoms: _335  and  _336
REMARK  143  A    between atoms: _339  and  _341
REMARK  144  A    between atoms: _341  and  _342
REMARK  145  A    between atoms: _341  and  _344
REMARK  146  A    between atoms: _344  and  _345
REMARK  147  A    between atoms: _345  and  _346
REMARK  148  A    between atoms: _351  and  _353
REMARK  149  A    between atoms: _353  and  _354
REMARK  150  A    between atoms: _353  and  _356
REMARK  151  A    between atoms: _356  and  _357
REMARK  152  A    between atoms: _359  and  _361
REMARK  153  A    between atoms: _361  and  _362
REMARK  154  A    between atoms: _361  and  _364
REMARK  155  A    between atoms: _364  and  _365
REMARK  156  A    between atoms: _370  and  _372
REMARK  157  A    between atoms: _372  and  _373
REMARK  158  A    between atoms: _372  and  _375
REMARK  159  A    between atoms: _375  and  _376
REMARK  160  A    between atoms: _378  and  _380
REMARK  161  A    between atoms: _380  and  _381
REMARK  162  A    between atoms: _380  and  _383
REMARK  163  A    between atoms: _383  and  _384
REMARK  164  A    between atoms: _390  and  _392
REMARK  165  A    between atoms: _392  and  _393
REMARK  166  A    between atoms: _392  and  _395
REMARK  167  A    between atoms: _395  and  _396
REMARK  168  A    between atoms: _399  and  _401
REMARK  169  A    between atoms: _401  and  _402
REMARK  170  A    between atoms: _401  and  _404
REMARK  171  A    between atoms: _404  and  _405
REMARK  172  A    between atoms: _408  and  _410
REMARK  173  A    between atoms: _410  and  _411
REMARK  174  A    between atoms: _414  and  _416
REMARK  175  A    between atoms: _416  and  _417
REMARK  176  A    between atoms: _416  and  _419
REMARK  177  A    between atoms: _419  and  _420
REMARK  178  A    between atoms: _423  and  _425
REMARK  179  A    between atoms: _425  and  _426
REMARK  180  A    between atoms: _425  and  _428
REMARK  181  A    between atoms: _431  and  _433
REMARK  182  A    between atoms: _433  and  _434
REMARK  183  A    between atoms: _437  and  _439
REMARK  184  A    between atoms: _439  and  _440
REMARK  185  A    between atoms: _439  and  _442
REMARK  186  A    between atoms: _442  and  _443
REMARK  187  A    between atoms: _449  and  _451
REMARK  188  A    between atoms: _451  and  _452
REMARK  189  A    between atoms: _451  and  _454
REMARK  190  A    between atoms: _454  and  _455
REMARK  191  A    between atoms: _460  and  _461
REMARK  192  A    between atoms: _463  and  _465
REMARK  193  A    between atoms: _465  and  _466
REMARK  194  A    between atoms: _465  and  _468
REMARK  195  A    between atoms: _468  and  _469
REMARK  196  A    between atoms: _473  and  _474
REMARK                            x       y       z     vdW  Elec       q    Type
REMARK                         _______ _______ _______ _____ _____    ______ ____
ROOT
ATOM      1  CA  LEU A   1      61.299  68.033  14.582  0.00  0.00    +0.133 C 
ENDROOT
BRANCH   1   2
ATOM      2  N   LEU A   1      60.538  67.483  13.475  0.00  0.00    -0.239 NA
ATOM      3  H   LEU A   1      59.895  66.681  13.631  0.00  0.00    +0.142 HD
ENDBRANCH   1   2
BRANCH   1   4
ATOM      4  C   LEU A   1      62.789  67.965  14.212  0.00  0.00    +0.224 C 
ATOM      5  O   LEU A   1      63.556  68.889  14.486  0.00  0.00    -0.287 OA
ENDBRANCH   1   4
BRANCH   1   6
ATOM      6  CB  LEU A   1      61.040  67.228  15.857  0.00  0.00    +0.025 C 
BRANCH   6   7
ATOM      7  CG  LEU A   1      61.896  67.566  17.082  0.00  0.00    +0.002 C 
ATOM      8  CD2 LEU A   1      61.513  66.676  18.229  0.00  0.00    +0.000 C 
ATOM      9  CD1 LEU A   1      61.703  69.024  17.478  0.00  0.00    +0.000 C 
ENDBRANCH   6   7
ENDBRANCH   1   6
TORSDOF 4
REMARK  Name = ../refined-set-2016/1y6q/1y6q_pocket.pdb
REMARK  196 active torsions:
REMARK  status: ('A' for Active; 'I' for Inactive)
REMARK    1  A    between atoms: _1  and  _3
REMARK    2  A    between atoms: _3  and  _4
REMARK    3  A    between atoms: _6  and  _8
REMARK    4  A    between atoms: _8  and  _9
REMARK    5  A    between atoms: _12  and  _14
REMARK    6  A    between atoms: _14  and  _15
REMARK    7  A    between atoms: _14  and  _17
REMARK    8  A    between atoms: _17  and  _18
REMARK    9  A    between atoms: _18  and  _19
REMARK   10  A    between atoms: _21  and  _23
REMARK   11  A    between atoms: _23  and  _24
REMARK   12  A    between atoms: _23  and  _26
REMARK   13  A    between atoms: _26  and  _27
REMARK   14  A    between atoms: _27  and  _28
REMARK   15  A    between atoms: _31  and  _33
REMARK   16  A    between atoms: _33  and  _34
REMARK   17  A    between atoms: _33  and  _36
REMARK   18  A    between atoms: _36  and  _37
REMARK   19  A    between atoms: _39  and  _41
REMARK   20  A    between atoms: _41  and  _42
REMARK   21  A    between atoms: _44  and  _46
REMARK   22  A    between atoms: _46  and  _47
REMARK   23  A    between atoms: _46  and  _49
REMARK   24  A    between atoms: _49  and  _50
REMARK   25  A    between atoms: _53  and  _55
REMARK   26  A    between atoms: _55  and  _56
REMARK   27  A    between atoms: _58  and  _60
REMARK   28  A    between atoms: _60  and  _61
REMARK   29  A    between atoms: _60  and  _63
REMARK   30  A    between atoms: _63  and  _64
REMARK   31  A    between atoms: _69  and  _71
REMARK   32  A    between atoms: _71  and  _72
REMARK   33  A    between atoms: _71  and  _74
REMARK   34  A    between atoms: _74  and  _75
REMARK   35  A    between atoms: _78  and  _80
REMARK   36  A    between atoms: _80  and  _81
REMARK   37  A    between atoms: _83  and  _85
REMARK   38  A    between atoms: _85  and  _86
REMARK   39  A    between atoms: _85  and  _88
REMARK   40  A    between atoms: _88  and  _89
REMARK   41  A    between atoms: _91  and  _93
REMARK   42  A    between atoms: _93  and  _94
REMARK   43  A    between atoms: _97  and  _99
REMARK   44  A    between atoms: _99  and  _100
REMARK   45  A    between atoms: _102  and  _104
REMARK   46  A    between atoms: _104  and  _105
REMARK   47  A    between atoms: _107  and  _109
REMARK   48  A    between atoms: _109  and  _110
REMARK   49  A    between atoms: _109  and  _112
REMARK   50  A    between atoms: _112  and  _113
REMARK   51  A    between atoms: _116  and  _118
REMARK   52  A    between atoms: _118  and  _119
REMARK   53  A    between atoms: _118  and  _121
REMARK   54  A    between atoms: _121  and  _122
REMARK   55  A    between atoms: _127  and  _129
REMARK   56  A    between atoms: _129  and  _130
REMARK   57  A    between atoms: _129  and  _132
REMARK   58  A    between atoms: _135  and  _137
REMARK   59  A    between atoms: _137  and  _138
REMARK   60  A    between atoms: _137  and  _140
REMARK   61  A    between atoms: _140  and  _141
REMARK   62  A    between atoms: _143  and  _145
REMARK   63  A    between atoms: _145  and  _146
REMARK   64  A    between atoms: _148  and  _150
REMARK   65  A    between atoms: _150  and  _151
REMARK   66  A    between atoms: _150  and  _153
REMARK   67  A    between atoms: _153  and  _154
REMARK   68  A    between atoms: _157  and  _159
REMARK   69  A    between atoms: _159  and  _160
REMARK   70  A    between atoms: _163  and  _165
REMARK   71  A    between atoms: _165  and  _166
REMARK   72  A    between atoms: _165  and  _168
REMARK   73  A    between atoms: _168  and  _169
REMARK   74  A    between atoms: _175  and  _177
REMARK   75  A    between atoms: _177  and  _178
REMARK   76  A    between atoms: _177  and  _180
REMARK   77  A    between atoms: _180  and  _181
REMARK   78  A    between atoms: _184  and  _186
REMARK   79  A    between atoms: _186  and  _187
REMARK   80  A    between atoms: _186  and  _189
REMARK   81  A    between atoms: _189  and  _190
REMARK   82  A    between atoms: _195  and  _197
REMARK   83  A    between atoms: _197  and  _198
REMARK   84  A    between atoms: _200  and  _202
REMARK   85  A    between atoms: _202  and  _203
REMARK   86  A    between atoms: _202  and  _205
REMARK   87  A    between atoms: _205  and  _206
REMARK   88  A    between atoms: _209  and  _211
REMARK   89  A    between atoms: _211  and  _212
REMARK   90  A    between atoms: _211  and  _214
REMARK   91  A    between atoms: _214  and  _215
REMARK   92  A    between atoms: _218  and  _220
REMARK   93  A    between atoms: _220  and  _221
REMARK   94  A    between atoms: _224  and  _226
REMARK   95  A    between atoms: _226  and  _227
REMARK   96  A    between atoms: _226  and  _229
REMARK   97  A    between atoms: _232  and  _234
REMARK   98  A    between atoms: _234  and  _235
REMARK   99  A    between atoms: _234  and  _237
REMARK  100  A    between atoms: _237  and  _238
REMARK  101  A    between atoms: _238  and  _239
REMARK  102  A    between atoms: _242  and  _244
REMARK  103  A    between atoms: _244  and  _245
REMARK  104  A    between atoms: _244  and  _247
REMARK  105  A    between atoms: _247  and  _248
REMARK  106  A    between atoms: _248  and  _249
REMARK  107  A    between atoms: _251  and  _253
REMARK  108  A    between atoms: _253  and  _254
REMARK  109  A    between atoms: _253  and  _256
REMARK  110  A    between atoms: _256  and  _257
REMARK  111  A    between atoms: _257  and  _258
REMARK  112  A    between atoms: _261  and  _263
REMARK  113  A    between atoms: _263  and  _264
REMARK  114  A    between atoms: _267  and  _269
REMARK  115  A    between atoms: _269  and  _270
REMARK  116  A    between atoms: _269  and  _272
REMARK  117  A    between atoms: _272  and  _273
REMARK  118  A    between atoms: _273  and  _274
REMARK  119  A    between atoms: _274  and  _275
REMARK  120  A    between atoms: _284  and  _286
REMARK  121  A    between atoms: _286  and  _287
REMARK  122  A    between atoms: _290  and  _292
REMARK  123  A    between atoms: _292  and  _293
REMARK  124  A    between atoms: _292  and  _295
REMARK  125  A    between atoms: _295  and  _296
REMARK  126  A    between atoms: _299  and  _301
REMARK  127  A    between atoms: _301  and  _302
REMARK  128  A    between atoms: _301  and  _304
REMARK  129  A    between atoms: _304  and  _305
REMARK  130  A    between atoms: _307  and  _309
REMARK  131  A    between atoms: _309  and  _310
REMARK  132  A    between atoms: _309  and  _312
REMARK  133  A    between atoms: _312  and  _313
REMARK  134  A    between atoms: _316  and  _318
REMARK  135  A    between atoms: _318  and  _319
REMARK  136  A    between atoms: _318  and  _321
REMARK  137  A    between atoms: _324  and  _326
REMARK  138  A    between atoms: _326  and  _327
REMARK  139  A    between atoms: _330  and  _332
REMARK  140  A    between atoms: _332  and  _333
REMARK  141  A    between atoms: _332  and  _335
REMARK  142  A    between atoms: _335  and  _336
REMARK  143  A    between atoms: _339  and  _341
REMARK  144  A    between atoms: _341  and  _342
REMARK  145  A    between atoms: _341  and  _344
REMARK  146  A    between atoms: _344  and  _345
REMARK  147  A    between atoms: _345  and  _346
REMARK  148  A    between atoms: _351  and  _353
REMARK  149  A    between atoms: _353  and  _354
REMARK  150  A    between atoms: _353  and  _356
REMARK  151  A    between atoms: _356  and  _357
REMARK  152  A    between atoms: _359  and  _361
REMARK  153  A    between atoms: _361  and  _362
REMARK  154  A    between atoms: _361  and  _364
REMARK  155  A    between atoms: _364  and  _365
REMARK  156  A    between atoms: _370  and  _372
REMARK  157  A    between atoms: _372  and  _373
REMARK  158  A    between atoms: _372  and  _375
REMARK  159  A    between atoms: _375  and  _376
REMARK  160  A    between atoms: _378  and  _380
REMARK  161  A    between atoms: _380  and  _381
REMARK  162  A    between atoms: _380  and  _383
REMARK  163  A    between atoms: _383  and  _384
REMARK  164  A    between atoms: _390  and  _392
REMARK  165  A    between atoms: _392  and  _393
REMARK  166  A    between atoms: _392  and  _395
REMARK  167  A    between atoms: _395  and  _396
REMARK  168  A    between atoms: _399  and  _401
REMARK  169  A    between atoms: _401  and  _402
REMARK  170  A    between atoms: _401  and  _404
REMARK  171  A    between atoms: _404  and  _405
REMARK  172  A    between atoms: _408  and  _410
REMARK  173  A    between atoms: _410  and  _411
REMARK  174  A    between atoms: _414  and  _416
REMARK  175  A    between atoms: _416  and  _417
REMARK  176  A    between atoms: _416  and  _419
REMARK  177  A    between atoms: _419  and  _420
REMARK  178  A    between atoms: _423  and  _425
REMARK  179  A    between atoms: _425  and  _426
REMARK  180  A    between atoms: _425  and  _428
REMARK  181  A    between atoms: _431  and  _433
REMARK  182  A    between atoms: _433  and  _434
REMARK  183  A    between atoms: _437  and  _439
REMARK  184  A    between atoms: _439  and  _440
REMARK  185  A    between atoms: _439  and  _442
REMARK  186  A    between atoms: _442  and  _443
REMARK  187  A    between atoms: _449  and  _451
REMARK  188  A    between atoms: _451  and  _452
REMARK  189  A    between atoms: _451  and  _454
REMARK  190  A    between atoms: _454  and  _455
REMARK  191  A    between atoms: _460  and  _461
REMARK  192  A    between atoms: _463  and  _465
REMARK  193  A    between atoms: _465  and  _466
REMARK  194  A    between atoms: _465  and  _468
REMARK  195  A    between atoms: _468  and  _469
REMARK  196  A    between atoms: _473  and  _474
REMARK                            x       y       z     vdW  Elec       q    Type
REMARK                         _______ _______ _______ _____ _____    ______ ____
ROOT
ATOM      1  CA  ALA A   1      63.989  71.993  12.691  0.00  0.00    +0.133 C 
ATOM      2  CB  ALA A   1      62.683  72.146  13.501  0.00  0.00    +0.027 C 
ENDROOT
BRANCH   1   3
ATOM      3  N   ALA A   1      64.007  70.723  11.969  0.00  0.00    -0.239 NA
ATOM      4  H   ALA A   1      63.303  69.991  12.194  0.00  0.00    +0.142 HD
ENDBRANCH   1   3
BRANCH   1   5
ATOM      5  C   ALA A   1      65.205  72.036  13.627  0.00  0.00    +0.224 C 
ATOM      6  O   ALA A   1      65.848  73.081  13.782  0.00  0.00    -0.287 OA
ENDBRANCH   1   5
TORSDOF 2
REMARK  Name = ../refined-set-2016/1y6q/1y6q_pocket.pdb
REMARK  196 active torsions:
REMARK  status: ('A' for Active; 'I' for Inactive)
REMARK    1  A    between atoms: _1  and  _3
REMARK    2  A    between atoms: _3  and  _4
REMARK    3  A    between atoms: _6  and  _8
REMARK    4  A    between atoms: _8  and  _9
REMARK    5  A    between atoms: _12  and  _14
REMARK    6  A    between atoms: _14  and  _15
REMARK    7  A    between atoms: _14  and  _17
REMARK    8  A    between atoms: _17  and  _18
REMARK    9  A    between atoms: _18  and  _19
REMARK   10  A    between atoms: _21  and  _23
REMARK   11  A    between atoms: _23  and  _24
REMARK   12  A    between atoms: _23  and  _26
REMARK   13  A    between atoms: _26  and  _27
REMARK   14  A    between atoms: _27  and  _28
REMARK   15  A    between atoms: _31  and  _33
REMARK   16  A    between atoms: _33  and  _34
REMARK   17  A    between atoms: _33  and  _36
REMARK   18  A    between atoms: _36  and  _37
REMARK   19  A    between atoms: _39  and  _41
REMARK   20  A    between atoms: _41  and  _42
REMARK   21  A    between atoms: _44  and  _46
REMARK   22  A    between atoms: _46  and  _47
REMARK   23  A    between atoms: _46  and  _49
REMARK   24  A    between atoms: _49  and  _50
REMARK   25  A    between atoms: _53  and  _55
REMARK   26  A    between atoms: _55  and  _56
REMARK   27  A    between atoms: _58  and  _60
REMARK   28  A    between atoms: _60  and  _61
REMARK   29  A    between atoms: _60  and  _63
REMARK   30  A    between atoms: _63  and  _64
REMARK   31  A    between atoms: _69  and  _71
REMARK   32  A    between atoms: _71  and  _72
REMARK   33  A    between atoms: _71  and  _74
REMARK   34  A    between atoms: _74  and  _75
REMARK   35  A    between atoms: _78  and  _80
REMARK   36  A    between atoms: _80  and  _81
REMARK   37  A    between atoms: _83  and  _85
REMARK   38  A    between atoms: _85  and  _86
REMARK   39  A    between atoms: _85  and  _88
REMARK   40  A    between atoms: _88  and  _89
REMARK   41  A    between atoms: _91  and  _93
REMARK   42  A    between atoms: _93  and  _94
REMARK   43  A    between atoms: _97  and  _99
REMARK   44  A    between atoms: _99  and  _100
REMARK   45  A    between atoms: _102  and  _104
REMARK   46  A    between atoms: _104  and  _105
REMARK   47  A    between atoms: _107  and  _109
REMARK   48  A    between atoms: _109  and  _110
REMARK   49  A    between atoms: _109  and  _112
REMARK   50  A    between atoms: _112  and  _113
REMARK   51  A    between atoms: _116  and  _118
REMARK   52  A    between atoms: _118  and  _119
REMARK   53  A    between atoms: _118  and  _121
REMARK   54  A    between atoms: _121  and  _122
REMARK   55  A    between atoms: _127  and  _129
REMARK   56  A    between atoms: _129  and  _130
REMARK   57  A    between atoms: _129  and  _132
REMARK   58  A    between atoms: _135  and  _137
REMARK   59  A    between atoms: _137  and  _138
REMARK   60  A    between atoms: _137  and  _140
REMARK   61  A    between atoms: _140  and  _141
REMARK   62  A    between atoms: _143  and  _145
REMARK   63  A    between atoms: _145  and  _146
REMARK   64  A    between atoms: _148  and  _150
REMARK   65  A    between atoms: _150  and  _151
REMARK   66  A    between atoms: _150  and  _153
REMARK   67  A    between atoms: _153  and  _154
REMARK   68  A    between atoms: _157  and  _159
REMARK   69  A    between atoms: _159  and  _160
REMARK   70  A    between atoms: _163  and  _165
REMARK   71  A    between atoms: _165  and  _166
REMARK   72  A    between atoms: _165  and  _168
REMARK   73  A    between atoms: _168  and  _169
REMARK   74  A    between atoms: _175  and  _177
REMARK   75  A    between atoms: _177  and  _178
REMARK   76  A    between atoms: _177  and  _180
REMARK   77  A    between atoms: _180  and  _181
REMARK   78  A    between atoms: _184  and  _186
REMARK   79  A    between atoms: _186  and  _187
REMARK   80  A    between atoms: _186  and  _189
REMARK   81  A    between atoms: _189  and  _190
REMARK   82  A    between atoms: _195  and  _197
REMARK   83  A    between atoms: _197  and  _198
REMARK   84  A    between atoms: _200  and  _202
REMARK   85  A    between atoms: _202  and  _203
REMARK   86  A    between atoms: _202  and  _205
REMARK   87  A    between atoms: _205  and  _206
REMARK   88  A    between atoms: _209  and  _211
REMARK   89  A    between atoms: _211  and  _212
REMARK   90  A    between atoms: _211  and  _214
REMARK   91  A    between atoms: _214  and  _215
REMARK   92  A    between atoms: _218  and  _220
REMARK   93  A    between atoms: _220  and  _221
REMARK   94  A    between atoms: _224  and  _226
REMARK   95  A    between atoms: _226  and  _227
REMARK   96  A    between atoms: _226  and  _229
REMARK   97  A    between atoms: _232  and  _234
REMARK   98  A    between atoms: _234  and  _235
REMARK   99  A    between atoms: _234  and  _237
REMARK  100  A    between atoms: _237  and  _238
REMARK  101  A    between atoms: _238  and  _239
REMARK  102  A    between atoms: _242  and  _244
REMARK  103  A    between atoms: _244  and  _245
REMARK  104  A    between atoms: _244  and  _247
REMARK  105  A    between atoms: _247  and  _248
REMARK  106  A    between atoms: _248  and  _249
REMARK  107  A    between atoms: _251  and  _253
REMARK  108  A    between atoms: _253  and  _254
REMARK  109  A    between atoms: _253  and  _256
REMARK  110  A    between atoms: _256  and  _257
REMARK  111  A    between atoms: _257  and  _258
REMARK  112  A    between atoms: _261  and  _263
REMARK  113  A    between atoms: _263  and  _264
REMARK  114  A    between atoms: _267  and  _269
REMARK  115  A    between atoms: _269  and  _270
REMARK  116  A    between atoms: _269  and  _272
REMARK  117  A    between atoms: _272  and  _273
REMARK  118  A    between atoms: _273  and  _274
REMARK  119  A    between atoms: _274  and  _275
REMARK  120  A    between atoms: _284  and  _286
REMARK  121  A    between atoms: _286  and  _287
REMARK  122  A    between atoms: _290  and  _292
REMARK  123  A    between atoms: _292  and  _293
REMARK  124  A    between atoms: _292  and  _295
REMARK  125  A    between atoms: _295  and  _296
REMARK  126  A    between atoms: _299  and  _301
REMARK  127  A    between atoms: _301  and  _302
REMARK  128  A    between atoms: _301  and  _304
REMARK  129  A    between atoms: _304  and  _305
REMARK  130  A    between atoms: _307  and  _309
REMARK  131  A    between atoms: _309  and  _310
REMARK  132  A    between atoms: _309  and  _312
REMARK  133  A    between atoms: _312  and  _313
REMARK  134  A    between atoms: _316  and  _318
REMARK  135  A    between atoms: _318  and  _319
REMARK  136  A    between atoms: _318  and  _321
REMARK  137  A    between atoms: _324  and  _326
REMARK  138  A    between atoms: _326  and  _327
REMARK  139  A    between atoms: _330  and  _332
REMARK  140  A    between atoms: _332  and  _333
REMARK  141  A    between atoms: _332  and  _335
REMARK  142  A    between atoms: _335  and  _336
REMARK  143  A    between atoms: _339  and  _341
REMARK  144  A    between atoms: _341  and  _342
REMARK  145  A    between atoms: _341  and  _344
REMARK  146  A    between atoms: _344  and  _345
REMARK  147  A    between atoms: _345  and  _346
REMARK  148  A    between atoms: _351  and  _353
REMARK  149  A    between atoms: _353  and  _354
REMARK  150  A    between atoms: _353  and  _356
REMARK  151  A    between atoms: _356  and  _357
REMARK  152  A    between atoms: _359  and  _361
REMARK  153  A    between atoms: _361  and  _362
REMARK  154  A    between atoms: _361  and  _364
REMARK  155  A    between atoms: _364  and  _365
REMARK  156  A    between atoms: _370  and  _372
REMARK  157  A    between atoms: _372  and  _373
REMARK  158  A    between atoms: _372  and  _375
REMARK  159  A    between atoms: _375  and  _376
REMARK  160  A    between atoms: _378  and  _380
REMARK  161  A    between atoms: _380  and  _381
REMARK  162  A    between atoms: _380  and  _383
REMARK  163  A    between atoms: _383  and  _384
REMARK  164  A    between atoms: _390  and  _392
REMARK  165  A    between atoms: _392  and  _393
REMARK  166  A    between atoms: _392  and  _395
REMARK  167  A    between atoms: _395  and  _396
REMARK  168  A    between atoms: _399  and  _401
REMARK  169  A    between atoms: _401  and  _402
REMARK  170  A    between atoms: _401  and  _404
REMARK  171  A    between atoms: _404  and  _405
REMARK  172  A    between atoms: _408  and  _410
REMARK  173  A    between atoms: _410  and  _411
REMARK  174  A    between atoms: _414  and  _416
REMARK  175  A    between atoms: _416  and  _417
REMARK  176  A    between atoms: _416  and  _419
REMARK  177  A    between atoms: _419  and  _420
REMARK  178  A    between atoms: _423  and  _425
REMARK  179  A    between atoms: _425  and  _426
REMARK  180  A    between atoms: _425  and  _428
REMARK  181  A    between atoms: _431  and  _433
REMARK  182  A    between atoms: _433  and  _434
REMARK  183  A    between atoms: _437  and  _439
REMARK  184  A    between atoms: _439  and  _440
REMARK  185  A    between atoms: _439  and  _442
REMARK  186  A    between atoms: _442  and  _443
REMARK  187  A    between atoms: _449  and  _451
REMARK  188  A    between atoms: _451  and  _452
REMARK  189  A    between atoms: _451  and  _454
REMARK  190  A    between atoms: _454  and  _455
REMARK  191  A    between atoms: _460  and  _461
REMARK  192  A    between atoms: _463  and  _465
REMARK  193  A    between atoms: _465  and  _466
REMARK  194  A    between atoms: _465  and  _468
REMARK  195  A    between atoms: _468  and  _469
REMARK  196  A    between atoms: _473  and  _474
REMARK                            x       y       z     vdW  Elec       q    Type
REMARK                         _______ _______ _______ _____ _____    ______ ____
ROOT
ATOM      1  C   ASP A   1      49.011  71.192  26.800  0.00  0.00    +0.239 C 
ATOM      2  N   VAL A   2      49.479  69.976  27.046  0.00  0.00    -0.298 N 
ATOM      3  H   VAL A   2      49.264  69.527  27.959  0.00  0.00    +0.150 HD
ATOM      4  O   ASP A   1      49.267  71.804  25.763  0.00  0.00    -0.274 OA
ENDROOT
BRANCH   1   5
ATOM      5  CA  ASP A   1      48.137  71.799  27.901  0.00  0.00    +0.156 C 
BRANCH   5   6
ATOM      6  N   ASP A   1      48.828  72.771  28.746  0.00  0.00    -0.238 NA
ATOM      7  H   ASP A   1      49.519  73.422  28.320  0.00  0.00    +0.142 HD
ENDBRANCH   5   6
BRANCH   5   8
ATOM      8  CB  ASP A   1      46.871  72.429  27.287  0.00  0.00    +0.140 C 
BRANCH   8   9
ATOM      9  CG  ASP A   1      46.051  71.427  26.471  0.00  0.00    +0.367 C 
ATOM     10  OD2 ASP A   1      46.504  70.277  26.283  0.00  0.00    -0.246 OA
ATOM     11  OD1 ASP A   1      44.948  71.779  26.013  0.00  0.00    -0.246 OA
ENDBRANCH   8   9
ENDBRANCH   5   8
ENDBRANCH   1   5
BRANCH   2  12
ATOM     12  CA  VAL A   2      50.288  69.250  26.071  0.00  0.00    +0.137 C 
BRANCH  12  13
ATOM     13  CB  VAL A   2      51.752  68.988  26.597  0.00  0.00    +0.026 C 
ATOM     14  CG2 VAL A   2      52.348  70.261  27.168  0.00  0.00    +0.002 C 
ATOM     15  CG1 VAL A   2      52.626  68.492  25.471  0.00  0.00    +0.002 C 
ENDBRANCH  12  13
BRANCH  12  16
ATOM     16  C   VAL A   2      49.560  67.914  25.883  0.00  0.00    +0.227 C 
ATOM     17  O   VAL A   2      50.192  66.876  25.665  0.00  0.00    -0.286 OA
ENDBRANCH  12  16
ENDBRANCH   2  12
TORSDOF 7
REMARK  Name = ../refined-set-2016/1y6q/1y6q_pocket.pdb
REMARK  196 active torsions:
REMARK  status: ('A' for Active; 'I' for Inactive)
REMARK    1  A    between atoms: _1  and  _3
REMARK    2  A    between atoms: _3  and  _4
REMARK    3  A    between atoms: _6  and  _8
REMARK    4  A    between atoms: _8  and  _9
REMARK    5  A    between atoms: _12  and  _14
REMARK    6  A    between atoms: _14  and  _15
REMARK    7  A    between atoms: _14  and  _17
REMARK    8  A    between atoms: _17  and  _18
REMARK    9  A    between atoms: _18  and  _19
REMARK   10  A    between atoms: _21  and  _23
REMARK   11  A    between atoms: _23  and  _24
REMARK   12  A    between atoms: _23  and  _26
REMARK   13  A    between atoms: _26  and  _27
REMARK   14  A    between atoms: _27  and  _28
REMARK   15  A    between atoms: _31  and  _33
REMARK   16  A    between atoms: _33  and  _34
REMARK   17  A    between atoms: _33  and  _36
REMARK   18  A    between atoms: _36  and  _37
REMARK   19  A    between atoms: _39  and  _41
REMARK   20  A    between atoms: _41  and  _42
REMARK   21  A    between atoms: _44  and  _46
REMARK   22  A    between atoms: _46  and  _47
REMARK   23  A    between atoms: _46  and  _49
REMARK   24  A    between atoms: _49  and  _50
REMARK   25  A    between atoms: _53  and  _55
REMARK   26  A    between atoms: _55  and  _56
REMARK   27  A    between atoms: _58  and  _60
REMARK   28  A    between atoms: _60  and  _61
REMARK   29  A    between atoms: _60  and  _63
REMARK   30  A    between atoms: _63  and  _64
REMARK   31  A    between atoms: _69  and  _71
REMARK   32  A    between atoms: _71  and  _72
REMARK   33  A    between atoms: _71  and  _74
REMARK   34  A    between atoms: _74  and  _75
REMARK   35  A    between atoms: _78  and  _80
REMARK   36  A    between atoms: _80  and  _81
REMARK   37  A    between atoms: _83  and  _85
REMARK   38  A    between atoms: _85  and  _86
REMARK   39  A    between atoms: _85  and  _88
REMARK   40  A    between atoms: _88  and  _89
REMARK   41  A    between atoms: _91  and  _93
REMARK   42  A    between atoms: _93  and  _94
REMARK   43  A    between atoms: _97  and  _99
REMARK   44  A    between atoms: _99  and  _100
REMARK   45  A    between atoms: _102  and  _104
REMARK   46  A    between atoms: _104  and  _105
REMARK   47  A    between atoms: _107  and  _109
REMARK   48  A    between atoms: _109  and  _110
REMARK   49  A    between atoms: _109  and  _112
REMARK   50  A    between atoms: _112  and  _113
REMARK   51  A    between atoms: _116  and  _118
REMARK   52  A    between atoms: _118  and  _119
REMARK   53  A    between atoms: _118  and  _121
REMARK   54  A    between atoms: _121  and  _122
REMARK   55  A    between atoms: _127  and  _129
REMARK   56  A    between atoms: _129  and  _130
REMARK   57  A    between atoms: _129  and  _132
REMARK   58  A    between atoms: _135  and  _137
REMARK   59  A    between atoms: _137  and  _138
REMARK   60  A    between atoms: _137  and  _140
REMARK   61  A    between atoms: _140  and  _141
REMARK   62  A    between atoms: _143  and  _145
REMARK   63  A    between atoms: _145  and  _146
REMARK   64  A    between atoms: _148  and  _150
REMARK   65  A    between atoms: _150  and  _151
REMARK   66  A    between atoms: _150  and  _153
REMARK   67  A    between atoms: _153  and  _154
REMARK   68  A    between atoms: _157  and  _159
REMARK   69  A    between atoms: _159  and  _160
REMARK   70  A    between atoms: _163  and  _165
REMARK   71  A    between atoms: _165  and  _166
REMARK   72  A    between atoms: _165  and  _168
REMARK   73  A    between atoms: _168  and  _169
REMARK   74  A    between atoms: _175  and  _177
REMARK   75  A    between atoms: _177  and  _178
REMARK   76  A    between atoms: _177  and  _180
REMARK   77  A    between atoms: _180  and  _181
REMARK   78  A    between atoms: _184  and  _186
REMARK   79  A    between atoms: _186  and  _187
REMARK   80  A    between atoms: _186  and  _189
REMARK   81  A    between atoms: _189  and  _190
REMARK   82  A    between atoms: _195  and  _197
REMARK   83  A    between atoms: _197  and  _198
REMARK   84  A    between atoms: _200  and  _202
REMARK   85  A    between atoms: _202  and  _203
REMARK   86  A    between atoms: _202  and  _205
REMARK   87  A    between atoms: _205  and  _206
REMARK   88  A    between atoms: _209  and  _211
REMARK   89  A    between atoms: _211  and  _212
REMARK   90  A    between atoms: _211  and  _214
REMARK   91  A    between atoms: _214  and  _215
REMARK   92  A    between atoms: _218  and  _220
REMARK   93  A    between atoms: _220  and  _221
REMARK   94  A    between atoms: _224  and  _226
REMARK   95  A    between atoms: _226  and  _227
REMARK   96  A    between atoms: _226  and  _229
REMARK   97  A    between atoms: _232  and  _234
REMARK   98  A    between atoms: _234  and  _235
REMARK   99  A    between atoms: _234  and  _237
REMARK  100  A    between atoms: _237  and  _238
REMARK  101  A    between atoms: _238  and  _239
REMARK  102  A    between atoms: _242  and  _244
REMARK  103  A    between atoms: _244  and  _245
REMARK  104  A    between atoms: _244  and  _247
REMARK  105  A    between atoms: _247  and  _248
REMARK  106  A    between atoms: _248  and  _249
REMARK  107  A    between atoms: _251  and  _253
REMARK  108  A    between atoms: _253  and  _254
REMARK  109  A    between atoms: _253  and  _256
REMARK  110  A    between atoms: _256  and  _257
REMARK  111  A    between atoms: _257  and  _258
REMARK  112  A    between atoms: _261  and  _263
REMARK  113  A    between atoms: _263  and  _264
REMARK  114  A    between atoms: _267  and  _269
REMARK  115  A    between atoms: _269  and  _270
REMARK  116  A    between atoms: _269  and  _272
REMARK  117  A    between atoms: _272  and  _273
REMARK  118  A    between atoms: _273  and  _274
REMARK  119  A    between atoms: _274  and  _275
REMARK  120  A    between atoms: _284  and  _286
REMARK  121  A    between atoms: _286  and  _287
REMARK  122  A    between atoms: _290  and  _292
REMARK  123  A    between atoms: _292  and  _293
REMARK  124  A    between atoms: _292  and  _295
REMARK  125  A    between atoms: _295  and  _296
REMARK  126  A    between atoms: _299  and  _301
REMARK  127  A    between atoms: _301  and  _302
REMARK  128  A    between atoms: _301  and  _304
REMARK  129  A    between atoms: _304  and  _305
REMARK  130  A    between atoms: _307  and  _309
REMARK  131  A    between atoms: _309  and  _310
REMARK  132  A    between atoms: _309  and  _312
REMARK  133  A    between atoms: _312  and  _313
REMARK  134  A    between atoms: _316  and  _318
REMARK  135  A    between atoms: _318  and  _319
REMARK  136  A    between atoms: _318  and  _321
REMARK  137  A    between atoms: _324  and  _326
REMARK  138  A    between atoms: _326  and  _327
REMARK  139  A    between atoms: _330  and  _332
REMARK  140  A    between atoms: _332  and  _333
REMARK  141  A    between atoms: _332  and  _335
REMARK  142  A    between atoms: _335  and  _336
REMARK  143  A    between atoms: _339  and  _341
REMARK  144  A    between atoms: _341  and  _342
REMARK  145  A    between atoms: _341  and  _344
REMARK  146  A    between atoms: _344  and  _345
REMARK  147  A    between atoms: _345  and  _346
REMARK  148  A    between atoms: _351  and  _353
REMARK  149  A    between atoms: _353  and  _354
REMARK  150  A    between atoms: _353  and  _356
REMARK  151  A    between atoms: _356  and  _357
REMARK  152  A    between atoms: _359  and  _361
REMARK  153  A    between atoms: _361  and  _362
REMARK  154  A    between atoms: _361  and  _364
REMARK  155  A    between atoms: _364  and  _365
REMARK  156  A    between atoms: _370  and  _372
REMARK  157  A    between atoms: _372  and  _373
REMARK  158  A    between atoms: _372  and  _375
REMARK  159  A    between atoms: _375  and  _376
REMARK  160  A    between atoms: _378  and  _380
REMARK  161  A    between atoms: _380  and  _381
REMARK  162  A    between atoms: _380  and  _383
REMARK  163  A    between atoms: _383  and  _384
REMARK  164  A    between atoms: _390  and  _392
REMARK  165  A    between atoms: _392  and  _393
REMARK  166  A    between atoms: _392  and  _395
REMARK  167  A    between atoms: _395  and  _396
REMARK  168  A    between atoms: _399  and  _401
REMARK  169  A    between atoms: _401  and  _402
REMARK  170  A    between atoms: _401  and  _404
REMARK  171  A    between atoms: _404  and  _405
REMARK  172  A    between atoms: _408  and  _410
REMARK  173  A    between atoms: _410  and  _411
REMARK  174  A    between atoms: _414  and  _416
REMARK  175  A    between atoms: _416  and  _417
REMARK  176  A    between atoms: _416  and  _419
REMARK  177  A    between atoms: _419  and  _420
REMARK  178  A    between atoms: _423  and  _425
REMARK  179  A    between atoms: _425  and  _426
REMARK  180  A    between atoms: _425  and  _428
REMARK  181  A    between atoms: _431  and  _433
REMARK  182  A    between atoms: _433  and  _434
REMARK  183  A    between atoms: _437  and  _439
REMARK  184  A    between atoms: _439  and  _440
REMARK  185  A    between atoms: _439  and  _442
REMARK  186  A    between atoms: _442  and  _443
REMARK  187  A    between atoms: _449  and  _451
REMARK  188  A    between atoms: _451  and  _452
REMARK  189  A    between atoms: _451  and  _454
REMARK  190  A    between atoms: _454  and  _455
REMARK  191  A    between atoms: _460  and  _461
REMARK  192  A    between atoms: _463  and  _465
REMARK  193  A    between atoms: _465  and  _466
REMARK  194  A    between atoms: _465  and  _468
REMARK  195  A    between atoms: _468  and  _469
REMARK  196  A    between atoms: _473  and  _474
REMARK                            x       y       z     vdW  Elec       q    Type
REMARK                         _______ _______ _______ _____ _____    ______ ____
ROOT
ATOM      1  CA  PHE A   2      51.011  64.246  23.024  0.00  0.00    +0.141 C 
ENDROOT
BRANCH   1   3
ATOM      2  C   ALA A   1      49.071  65.355  22.035  0.00  0.00    +0.238 C 
ATOM      3  N   PHE A   2      50.018  65.325  22.972  0.00  0.00    -0.298 N 
ATOM      4  H   PHE A   2      50.054  66.084  23.683  0.00  0.00    +0.150 HD
ATOM      5  O   ALA A   1      48.990  64.521  21.141  0.00  0.00    -0.274 OA
BRANCH   2   6
ATOM      6  CA  ALA A   1      48.066  66.499  22.103  0.00  0.00    +0.145 C 
ATOM      7  CB  ALA A   1      48.515  67.664  21.189  0.00  0.00    +0.028 C 
BRANCH   6   8
ATOM      8  N   ALA A   1      47.928  66.950  23.482  0.00  0.00    -0.238 NA
ATOM      9  H   ALA A   1      48.163  67.935  23.718  0.00  0.00    +0.142 HD
ENDBRANCH   6   8
ENDBRANCH   2   6
ENDBRANCH   1   3
BRANCH   1  10
ATOM     10  C   PHE A   2      50.662  63.224  24.110  0.00  0.00    +0.227 C 
ATOM     11  O   PHE A   2      51.490  62.385  24.463  0.00  0.00    -0.286 OA
ENDBRANCH   1  10
BRANCH   1  12
ATOM     12  CB  PHE A   2      52.438  64.788  23.284  0.00  0.00    +0.054 C 
BRANCH  12  13
ATOM     13  CG  PHE A   2      52.942  65.675  22.192  0.00  0.00    -0.020 A 
ATOM     14  CD2 PHE A   2      52.727  67.047  22.240  0.00  0.00    -0.004 A 
ATOM     15  CE2 PHE A   2      53.086  67.859  21.171  0.00  0.00    -0.000 A 
ATOM     16  CZ  PHE A   2      53.669  67.294  20.044  0.00  0.00    -0.000 A 
ATOM     17  CE1 PHE A   2      53.893  65.936  19.989  0.00  0.00    -0.000 A 
ATOM     18  CD1 PHE A   2      53.532  65.131  21.062  0.00  0.00    -0.004 A 
ENDBRANCH  12  13
ENDBRANCH   1  12
TORSDOF 6
REMARK  Name = ../refined-set-2016/1y6q/1y6q_pocket.pdb
REMARK  196 active torsions:
REMARK  status: ('A' for Active; 'I' for Inactive)
REMARK    1  A    between atoms: _1  and  _3
REMARK    2  A    between atoms: _3  and  _4
REMARK    3  A    between atoms: _6  and  _8
REMARK    4  A    between atoms: _8  and  _9
REMARK    5  A    between atoms: _12  and  _14
REMARK    6  A    between atoms: _14  and  _15
REMARK    7  A    between atoms: _14  and  _17
REMARK    8  A    between atoms: _17  and  _18
REMARK    9  A    between atoms: _18  and  _19
REMARK   10  A    between atoms: _21  and  _23
REMARK   11  A    between atoms: _23  and  _24
REMARK   12  A    between atoms: _23  and  _26
REMARK   13  A    between atoms: _26  and  _27
REMARK   14  A    between atoms: _27  and  _28
REMARK   15  A    between atoms: _31  and  _33
REMARK   16  A    between atoms: _33  and  _34
REMARK   17  A    between atoms: _33  and  _36
REMARK   18  A    between atoms: _36  and  _37
REMARK   19  A    between atoms: _39  and  _41
REMARK   20  A    between atoms: _41  and  _42
REMARK   21  A    between atoms: _44  and  _46
REMARK   22  A    between atoms: _46  and  _47
REMARK   23  A    between atoms: _46  and  _49
REMARK   24  A    between atoms: _49  and  _50
REMARK   25  A    between atoms: _53  and  _55
REMARK   26  A    between atoms: _55  and  _56
REMARK   27  A    between atoms: _58  and  _60
REMARK   28  A    between atoms: _60  and  _61
REMARK   29  A    between atoms: _60  and  _63
REMARK   30  A    between atoms: _63  and  _64
REMARK   31  A    between atoms: _69  and  _71
REMARK   32  A    between atoms: _71  and  _72
REMARK   33  A    between atoms: _71  and  _74
REMARK   34  A    between atoms: _74  and  _75
REMARK   35  A    between atoms: _78  and  _80
REMARK   36  A    between atoms: _80  and  _81
REMARK   37  A    between atoms: _83  and  _85
REMARK   38  A    between atoms: _85  and  _86
REMARK   39  A    between atoms: _85  and  _88
REMARK   40  A    between atoms: _88  and  _89
REMARK   41  A    between atoms: _91  and  _93
REMARK   42  A    between atoms: _93  and  _94
REMARK   43  A    between atoms: _97  and  _99
REMARK   44  A    between atoms: _99  and  _100
REMARK   45  A    between atoms: _102  and  _104
REMARK   46  A    between atoms: _104  and  _105
REMARK   47  A    between atoms: _107  and  _109
REMARK   48  A    between atoms: _109  and  _110
REMARK   49  A    between atoms: _109  and  _112
REMARK   50  A    between atoms: _112  and  _113
REMARK   51  A    between atoms: _116  and  _118
REMARK   52  A    between atoms: _118  and  _119
REMARK   53  A    between atoms: _118  and  _121
REMARK   54  A    between atoms: _121  and  _122
REMARK   55  A    between atoms: _127  and  _129
REMARK   56  A    between atoms: _129  and  _130
REMARK   57  A    between atoms: _129  and  _132
REMARK   58  A    between atoms: _135  and  _137
REMARK   59  A    between atoms: _137  and  _138
REMARK   60  A    between atoms: _137  and  _140
REMARK   61  A    between atoms: _140  and  _141
REMARK   62  A    between atoms: _143  and  _145
REMARK   63  A    between atoms: _145  and  _146
REMARK   64  A    between atoms: _148  and  _150
REMARK   65  A    between atoms: _150  and  _151
REMARK   66  A    between atoms: _150  and  _153
REMARK   67  A    between atoms: _153  and  _154
REMARK   68  A    between atoms: _157  and  _159
REMARK   69  A    between atoms: _159  and  _160
REMARK   70  A    between atoms: _163  and  _165
REMARK   71  A    between atoms: _165  and  _166
REMARK   72  A    between atoms: _165  and  _168
REMARK   73  A    between atoms: _168  and  _169
REMARK   74  A    between atoms: _175  and  _177
REMARK   75  A    between atoms: _177  and  _178
REMARK   76  A    between atoms: _177  and  _180
REMARK   77  A    between atoms: _180  and  _181
REMARK   78  A    between atoms: _184  and  _186
REMARK   79  A    between atoms: _186  and  _187
REMARK   80  A    between atoms: _186  and  _189
REMARK   81  A    between atoms: _189  and  _190
REMARK   82  A    between atoms: _195  and  _197
REMARK   83  A    between atoms: _197  and  _198
REMARK   84  A    between atoms: _200  and  _202
REMARK   85  A    between atoms: _202  and  _203
REMARK   86  A    between atoms: _202  and  _205
REMARK   87  A    between atoms: _205  and  _206
REMARK   88  A    between atoms: _209  and  _211
REMARK   89  A    between atoms: _211  and  _212
REMARK   90  A    between atoms: _211  and  _214
REMARK   91  A    between atoms: _214  and  _215
REMARK   92  A    between atoms: _218  and  _220
REMARK   93  A    between atoms: _220  and  _221
REMARK   94  A    between atoms: _224  and  _226
REMARK   95  A    between atoms: _226  and  _227
REMARK   96  A    between atoms: _226  and  _229
REMARK   97  A    between atoms: _232  and  _234
REMARK   98  A    between atoms: _234  and  _235
REMARK   99  A    between atoms: _234  and  _237
REMARK  100  A    between atoms: _237  and  _238
REMARK  101  A    between atoms: _238  and  _239
REMARK  102  A    between atoms: _242  and  _244
REMARK  103  A    between atoms: _244  and  _245
REMARK  104  A    between atoms: _244  and  _247
REMARK  105  A    between atoms: _247  and  _248
REMARK  106  A    between atoms: _248  and  _249
REMARK  107  A    between atoms: _251  and  _253
REMARK  108  A    between atoms: _253  and  _254
REMARK  109  A    between atoms: _253  and  _256
REMARK  110  A    between atoms: _256  and  _257
REMARK  111  A    between atoms: _257  and  _258
REMARK  112  A    between atoms: _261  and  _263
REMARK  113  A    between atoms: _263  and  _264
REMARK  114  A    between atoms: _267  and  _269
REMARK  115  A    between atoms: _269  and  _270
REMARK  116  A    between atoms: _269  and  _272
REMARK  117  A    between atoms: _272  and  _273
REMARK  118  A    between atoms: _273  and  _274
REMARK  119  A    between atoms: _274  and  _275
REMARK  120  A    between atoms: _284  and  _286
REMARK  121  A    between atoms: _286  and  _287
REMARK  122  A    between atoms: _290  and  _292
REMARK  123  A    between atoms: _292  and  _293
REMARK  124  A    between atoms: _292  and  _295
REMARK  125  A    between atoms: _295  and  _296
REMARK  126  A    between atoms: _299  and  _301
REMARK  127  A    between atoms: _301  and  _302
REMARK  128  A    between atoms: _301  and  _304
REMARK  129  A    between atoms: _304  and  _305
REMARK  130  A    between atoms: _307  and  _309
REMARK  131  A    between atoms: _309  and  _310
REMARK  132  A    between atoms: _309  and  _312
REMARK  133  A    between atoms: _312  and  _313
REMARK  134  A    between atoms: _316  and  _318
REMARK  135  A    between atoms: _318  and  _319
REMARK  136  A    between atoms: _318  and  _321
REMARK  137  A    between atoms: _324  and  _326
REMARK  138  A    between atoms: _326  and  _327
REMARK  139  A    between atoms: _330  and  _332
REMARK  140  A    between atoms: _332  and  _333
REMARK  141  A    between atoms: _332  and  _335
REMARK  142  A    between atoms: _335  and  _336
REMARK  143  A    between atoms: _339  and  _341
REMARK  144  A    between atoms: _341  and  _342
REMARK  145  A    between atoms: _341  and  _344
REMARK  146  A    between atoms: _344  and  _345
REMARK  147  A    between atoms: _345  and  _346
REMARK  148  A    between atoms: _351  and  _353
REMARK  149  A    between atoms: _353  and  _354
REMARK  150  A    between atoms: _353  and  _356
REMARK  151  A    between atoms: _356  and  _357
REMARK  152  A    between atoms: _359  and  _361
REMARK  153  A    between atoms: _361  and  _362
REMARK  154  A    between atoms: _361  and  _364
REMARK  155  A    between atoms: _364  and  _365
REMARK  156  A    between atoms: _370  and  _372
REMARK  157  A    between atoms: _372  and  _373
REMARK  158  A    between atoms: _372  and  _375
REMARK  159  A    between atoms: _375  and  _376
REMARK  160  A    between atoms: _378  and  _380
REMARK  161  A    between atoms: _380  and  _381
REMARK  162  A    between atoms: _380  and  _383
REMARK  163  A    between atoms: _383  and  _384
REMARK  164  A    between atoms: _390  and  _392
REMARK  165  A    between atoms: _392  and  _393
REMARK  166  A    between atoms: _392  and  _395
REMARK  167  A    between atoms: _395  and  _396
REMARK  168  A    between atoms: _399  and  _401
REMARK  169  A    between atoms: _401  and  _402
REMARK  170  A    between atoms: _401  and  _404
REMARK  171  A    between atoms: _404  and  _405
REMARK  172  A    between atoms: _408  and  _410
REMARK  173  A    between atoms: _410  and  _411
REMARK  174  A    between atoms: _414  and  _416
REMARK  175  A    between atoms: _416  and  _417
REMARK  176  A    between atoms: _416  and  _419
REMARK  177  A    between atoms: _419  and  _420
REMARK  178  A    between atoms: _423  and  _425
REMARK  179  A    between atoms: _425  and  _426
REMARK  180  A    between atoms: _425  and  _428
REMARK  181  A    between atoms: _431  and  _433
REMARK  182  A    between atoms: _433  and  _434
REMARK  183  A    between atoms: _437  and  _439
REMARK  184  A    between atoms: _439  and  _440
REMARK  185  A    between atoms: _439  and  _442
REMARK  186  A    between atoms: _442  and  _443
REMARK  187  A    between atoms: _449  and  _451
REMARK  188  A    between atoms: _451  and  _452
REMARK  189  A    between atoms: _451  and  _454
REMARK  190  A    between atoms: _454  and  _455
REMARK  191  A    between atoms: _460  and  _461
REMARK  192  A    between atoms: _463  and  _465
REMARK  193  A    between atoms: _465  and  _466
REMARK  194  A    between atoms: _465  and  _468
REMARK  195  A    between atoms: _468  and  _469
REMARK  196  A    between atoms: _473  and  _474
REMARK                            x       y       z     vdW  Elec       q    Type
REMARK                         _______ _______ _______ _____ _____    ______ ____
ROOT
ATOM      1  CG  TYR A   1      52.417  64.872  28.484  0.00  0.00    -0.020 A 
ATOM      2  CD2 TYR A   1      53.342  64.201  29.286  0.00  0.00    -0.001 A 
ATOM      3  CE2 TYR A   1      54.555  63.762  28.771  0.00  0.00    +0.036 A 
ATOM      4  CZ  TYR A   1      54.859  63.984  27.436  0.00  0.00    +0.134 A 
ATOM      5  CE1 TYR A   1      53.965  64.653  26.612  0.00  0.00    +0.036 A 
ATOM      6  CD1 TYR A   1      52.750  65.100  27.144  0.00  0.00    -0.001 A 
ENDROOT
BRANCH   4   7
ATOM      7  OH  TYR A   1      56.053  63.516  26.929  0.00  0.00    -0.506 OA
ATOM      8  HH  TYR A   1      56.563  63.068  27.650  0.00  0.00    +0.292 HD
ENDBRANCH   4   7
BRANCH   1   9
ATOM      9  CB  TYR A   1      51.051  65.244  29.022  0.00  0.00    +0.051 C 
BRANCH   9  10
ATOM     10  CA  TYR A   1      50.033  64.110  28.887  0.00  0.00    +0.137 C 
BRANCH  10  11
ATOM     11  N   TYR A   1      49.812  63.798  27.483  0.00  0.00    -0.239 NA
ATOM     12  H   TYR A   1      49.981  64.518  26.752  0.00  0.00    +0.142 HD
ENDBRANCH  10  11
BRANCH  10  13
ATOM     13  C   TYR A   1      48.674  64.517  29.479  0.00  0.00    +0.224 C 
ATOM     14  O   TYR A   1      47.756  64.897  28.752  0.00  0.00    -0.287 OA
ENDBRANCH  10  13
ENDBRANCH   9  10
ENDBRANCH   1   9
TORSDOF 5
REMARK  Name = ../refined-set-2016/1y6q/1y6q_pocket.pdb
REMARK  196 active torsions:
REMARK  status: ('A' for Active; 'I' for Inactive)
REMARK    1  A    between atoms: _1  and  _3
REMARK    2  A    between atoms: _3  and  _4
REMARK    3  A    between atoms: _6  and  _8
REMARK    4  A    between atoms: _8  and  _9
REMARK    5  A    between atoms: _12  and  _14
REMARK    6  A    between atoms: _14  and  _15
REMARK    7  A    between atoms: _14  and  _17
REMARK    8  A    between atoms: _17  and  _18
REMARK    9  A    between atoms: _18  and  _19
REMARK   10  A    between atoms: _21  and  _23
REMARK   11  A    between atoms: _23  and  _24
REMARK   12  A    between atoms: _23  and  _26
REMARK   13  A    between atoms: _26  and  _27
REMARK   14  A    between atoms: _27  and  _28
REMARK   15  A    between atoms: _31  and  _33
REMARK   16  A    between atoms: _33  and  _34
REMARK   17  A    between atoms: _33  and  _36
REMARK   18  A    between atoms: _36  and  _37
REMARK   19  A    between atoms: _39  and  _41
REMARK   20  A    between atoms: _41  and  _42
REMARK   21  A    between atoms: _44  and  _46
REMARK   22  A    between atoms: _46  and  _47
REMARK   23  A    between atoms: _46  and  _49
REMARK   24  A    between atoms: _49  and  _50
REMARK   25  A    between atoms: _53  and  _55
REMARK   26  A    between atoms: _55  and  _56
REMARK   27  A    between atoms: _58  and  _60
REMARK   28  A    between atoms: _60  and  _61
REMARK   29  A    between atoms: _60  and  _63
REMARK   30  A    between atoms: _63  and  _64
REMARK   31  A    between atoms: _69  and  _71
REMARK   32  A    between atoms: _71  and  _72
REMARK   33  A    between atoms: _71  and  _74
REMARK   34  A    between atoms: _74  and  _75
REMARK   35  A    between atoms: _78  and  _80
REMARK   36  A    between atoms: _80  and  _81
REMARK   37  A    between atoms: _83  and  _85
REMARK   38  A    between atoms: _85  and  _86
REMARK   39  A    between atoms: _85  and  _88
REMARK   40  A    between atoms: _88  and  _89
REMARK   41  A    between atoms: _91  and  _93
REMARK   42  A    between atoms: _93  and  _94
REMARK   43  A    between atoms: _97  and  _99
REMARK   44  A    between atoms: _99  and  _100
REMARK   45  A    between atoms: _102  and  _104
REMARK   46  A    between atoms: _104  and  _105
REMARK   47  A    between atoms: _107  and  _109
REMARK   48  A    between atoms: _109  and  _110
REMARK   49  A    between atoms: _109  and  _112
REMARK   50  A    between atoms: _112  and  _113
REMARK   51  A    between atoms: _116  and  _118
REMARK   52  A    between atoms: _118  and  _119
REMARK   53  A    between atoms: _118  and  _121
REMARK   54  A    between atoms: _121  and  _122
REMARK   55  A    between atoms: _127  and  _129
REMARK   56  A    between atoms: _129  and  _130
REMARK   57  A    between atoms: _129  and  _132
REMARK   58  A    between atoms: _135  and  _137
REMARK   59  A    between atoms: _137  and  _138
REMARK   60  A    between atoms: _137  and  _140
REMARK   61  A    between atoms: _140  and  _141
REMARK   62  A    between atoms: _143  and  _145
REMARK   63  A    between atoms: _145  and  _146
REMARK   64  A    between atoms: _148  and  _150
REMARK   65  A    between atoms: _150  and  _151
REMARK   66  A    between atoms: _150  and  _153
REMARK   67  A    between atoms: _153  and  _154
REMARK   68  A    between atoms: _157  and  _159
REMARK   69  A    between atoms: _159  and  _160
REMARK   70  A    between atoms: _163  and  _165
REMARK   71  A    between atoms: _165  and  _166
REMARK   72  A    between atoms: _165  and  _168
REMARK   73  A    between atoms: _168  and  _169
REMARK   74  A    between atoms: _175  and  _177
REMARK   75  A    between atoms: _177  and  _178
REMARK   76  A    between atoms: _177  and  _180
REMARK   77  A    between atoms: _180  and  _181
REMARK   78  A    between atoms: _184  and  _186
REMARK   79  A    between atoms: _186  and  _187
REMARK   80  A    between atoms: _186  and  _189
REMARK   81  A    between atoms: _189  and  _190
REMARK   82  A    between atoms: _195  and  _197
REMARK   83  A    between atoms: _197  and  _198
REMARK   84  A    between atoms: _200  and  _202
REMARK   85  A    between atoms: _202  and  _203
REMARK   86  A    between atoms: _202  and  _205
REMARK   87  A    between atoms: _205  and  _206
REMARK   88  A    between atoms: _209  and  _211
REMARK   89  A    between atoms: _211  and  _212
REMARK   90  A    between atoms: _211  and  _214
REMARK   91  A    between atoms: _214  and  _215
REMARK   92  A    between atoms: _218  and  _220
REMARK   93  A    between atoms: _220  and  _221
REMARK   94  A    between atoms: _224  and  _226
REMARK   95  A    between atoms: _226  and  _227
REMARK   96  A    between atoms: _226  and  _229
REMARK   97  A    between atoms: _232  and  _234
REMARK   98  A    between atoms: _234  and  _235
REMARK   99  A    between atoms: _234  and  _237
REMARK  100  A    between atoms: _237  and  _238
REMARK  101  A    between atoms: _238  and  _239
REMARK  102  A    between atoms: _242  and  _244
REMARK  103  A    between atoms: _244  and  _245
REMARK  104  A    between atoms: _244  and  _247
REMARK  105  A    between atoms: _247  and  _248
REMARK  106  A    between atoms: _248  and  _249
REMARK  107  A    between atoms: _251  and  _253
REMARK  108  A    between atoms: _253  and  _254
REMARK  109  A    between atoms: _253  and  _256
REMARK  110  A    between atoms: _256  and  _257
REMARK  111  A    between atoms: _257  and  _258
REMARK  112  A    between atoms: _261  and  _263
REMARK  113  A    between atoms: _263  and  _264
REMARK  114  A    between atoms: _267  and  _269
REMARK  115  A    between atoms: _269  and  _270
REMARK  116  A    between atoms: _269  and  _272
REMARK  117  A    between atoms: _272  and  _273
REMARK  118  A    between atoms: _273  and  _274
REMARK  119  A    between atoms: _274  and  _275
REMARK  120  A    between atoms: _284  and  _286
REMARK  121  A    between atoms: _286  and  _287
REMARK  122  A    between atoms: _290  and  _292
REMARK  123  A    between atoms: _292  and  _293
REMARK  124  A    between atoms: _292  and  _295
REMARK  125  A    between atoms: _295  and  _296
REMARK  126  A    between atoms: _299  and  _301
REMARK  127  A    between atoms: _301  and  _302
REMARK  128  A    between atoms: _301  and  _304
REMARK  129  A    between atoms: _304  and  _305
REMARK  130  A    between atoms: _307  and  _309
REMARK  131  A    between atoms: _309  and  _310
REMARK  132  A    between atoms: _309  and  _312
REMARK  133  A    between atoms: _312  and  _313
REMARK  134  A    between atoms: _316  and  _318
REMARK  135  A    between atoms: _318  and  _319
REMARK  136  A    between atoms: _318  and  _321
REMARK  137  A    between atoms: _324  and  _326
REMARK  138  A    between atoms: _326  and  _327
REMARK  139  A    between atoms: _330  and  _332
REMARK  140  A    between atoms: _332  and  _333
REMARK  141  A    between atoms: _332  and  _335
REMARK  142  A    between atoms: _335  and  _336
REMARK  143  A    between atoms: _339  and  _341
REMARK  144  A    between atoms: _341  and  _342
REMARK  145  A    between atoms: _341  and  _344
REMARK  146  A    between atoms: _344  and  _345
REMARK  147  A    between atoms: _345  and  _346
REMARK  148  A    between atoms: _351  and  _353
REMARK  149  A    between atoms: _353  and  _354
REMARK  150  A    between atoms: _353  and  _356
REMARK  151  A    between atoms: _356  and  _357
REMARK  152  A    between atoms: _359  and  _361
REMARK  153  A    between atoms: _361  and  _362
REMARK  154  A    between atoms: _361  and  _364
REMARK  155  A    between atoms: _364  and  _365
REMARK  156  A    between atoms: _370  and  _372
REMARK  157  A    between atoms: _372  and  _373
REMARK  158  A    between atoms: _372  and  _375
REMARK  159  A    between atoms: _375  and  _376
REMARK  160  A    between atoms: _378  and  _380
REMARK  161  A    between atoms: _380  and  _381
REMARK  162  A    between atoms: _380  and  _383
REMARK  163  A    between atoms: _383  and  _384
REMARK  164  A    between atoms: _390  and  _392
REMARK  165  A    between atoms: _392  and  _393
REMARK  166  A    between atoms: _392  and  _395
REMARK  167  A    between atoms: _395  and  _396
REMARK  168  A    between atoms: _399  and  _401
REMARK  169  A    between atoms: _401  and  _402
REMARK  170  A    between atoms: _401  and  _404
REMARK  171  A    between atoms: _404  and  _405
REMARK  172  A    between atoms: _408  and  _410
REMARK  173  A    between atoms: _410  and  _411
REMARK  174  A    between atoms: _414  and  _416
REMARK  175  A    between atoms: _416  and  _417
REMARK  176  A    between atoms: _416  and  _419
REMARK  177  A    between atoms: _419  and  _420
REMARK  178  A    between atoms: _423  and  _425
REMARK  179  A    between atoms: _425  and  _426
REMARK  180  A    between atoms: _425  and  _428
REMARK  181  A    between atoms: _431  and  _433
REMARK  182  A    between atoms: _433  and  _434
REMARK  183  A    between atoms: _437  and  _439
REMARK  184  A    between atoms: _439  and  _440
REMARK  185  A    between atoms: _439  and  _442
REMARK  186  A    between atoms: _442  and  _443
REMARK  187  A    between atoms: _449  and  _451
REMARK  188  A    between atoms: _451  and  _452
REMARK  189  A    between atoms: _451  and  _454
REMARK  190  A    between atoms: _454  and  _455
REMARK  191  A    between atoms: _460  and  _461
REMARK  192  A    between atoms: _463  and  _465
REMARK  193  A    between atoms: _465  and  _466
REMARK  194  A    between atoms: _465  and  _468
REMARK  195  A    between atoms: _468  and  _469
REMARK  196  A    between atoms: _473  and  _474
REMARK                            x       y       z     vdW  Elec       q    Type
REMARK                         _______ _______ _______ _____ _____    ______ ____
ROOT
ATOM      1  C   LEU A   1      55.036  68.252  31.537  0.00  0.00    +0.241 C 
ATOM      2  O   LEU A   1      55.300  67.637  32.548  0.00  0.00    -0.273 OA
ATOM      3  N   PRO A   2      55.525  67.895  30.342  0.00  0.00    -0.273 N 
ATOM      4  CA  PRO A   2      56.423  66.742  30.205  0.00  0.00    +0.140 C 
ATOM      5  CB  PRO A   2      56.865  66.814  28.740  0.00  0.00    +0.030 C 
ATOM      6  CG  PRO A   2      55.665  67.431  28.047  0.00  0.00    +0.024 C 
ATOM      7  CD  PRO A   2      55.290  68.540  29.036  0.00  0.00    +0.094 C 
ENDROOT
BRANCH   4   8
ATOM      8  C   PRO A   2      57.598  66.874  31.144  0.00  0.00    +0.227 C 
ATOM      9  O   PRO A   2      58.207  67.950  31.246  0.00  0.00    -0.286 OA
ENDBRANCH   4   8
BRANCH   1  10
ATOM     10  CA  LEU A   1      54.112  69.466  31.613  0.00  0.00    +0.145 C 
BRANCH  10  11
ATOM     11  N   LEU A   1      53.041  69.114  32.556  0.00  0.00    -0.238 NA
ATOM     12  H   LEU A   1      53.221  69.180  33.578  0.00  0.00    +0.142 HD
ENDBRANCH  10  11
BRANCH  10  13
ATOM     13  CB  LEU A   1      54.931  70.662  32.103  0.00  0.00    +0.026 C 
BRANCH  13  14
ATOM     14  CG  LEU A   1      54.388  72.059  31.804  0.00  0.00    +0.002 C 
ATOM     15  CD2 LEU A   1      53.354  72.407  32.801  0.00  0.00    +0.000 C 
ATOM     16  CD1 LEU A   1      53.786  72.108  30.407  0.00  0.00    +0.000 C 
ENDBRANCH  13  14
ENDBRANCH  10  13
ENDBRANCH   1  10
TORSDOF 5
REMARK  Name = ../refined-set-2016/1y6q/1y6q_pocket.pdb
REMARK  196 active torsions:
REMARK  status: ('A' for Active; 'I' for Inactive)
REMARK    1  A    between atoms: _1  and  _3
REMARK    2  A    between atoms: _3  and  _4
REMARK    3  A    between atoms: _6  and  _8
REMARK    4  A    between atoms: _8  and  _9
REMARK    5  A    between atoms: _12  and  _14
REMARK    6  A    between atoms: _14  and  _15
REMARK    7  A    between atoms: _14  and  _17
REMARK    8  A    between atoms: _17  and  _18
REMARK    9  A    between atoms: _18  and  _19
REMARK   10  A    between atoms: _21  and  _23
REMARK   11  A    between atoms: _23  and  _24
REMARK   12  A    between atoms: _23  and  _26
REMARK   13  A    between atoms: _26  and  _27
REMARK   14  A    between atoms: _27  and  _28
REMARK   15  A    between atoms: _31  and  _33
REMARK   16  A    between atoms: _33  and  _34
REMARK   17  A    between atoms: _33  and  _36
REMARK   18  A    between atoms: _36  and  _37
REMARK   19  A    between atoms: _39  and  _41
REMARK   20  A    between atoms: _41  and  _42
REMARK   21  A    between atoms: _44  and  _46
REMARK   22  A    between atoms: _46  and  _47
REMARK   23  A    between atoms: _46  and  _49
REMARK   24  A    between atoms: _49  and  _50
REMARK   25  A    between atoms: _53  and  _55
REMARK   26  A    between atoms: _55  and  _56
REMARK   27  A    between atoms: _58  and  _60
REMARK   28  A    between atoms: _60  and  _61
REMARK   29  A    between atoms: _60  and  _63
REMARK   30  A    between atoms: _63  and  _64
REMARK   31  A    between atoms: _69  and  _71
REMARK   32  A    between atoms: _71  and  _72
REMARK   33  A    between atoms: _71  and  _74
REMARK   34  A    between atoms: _74  and  _75
REMARK   35  A    between atoms: _78  and  _80
REMARK   36  A    between atoms: _80  and  _81
REMARK   37  A    between atoms: _83  and  _85
REMARK   38  A    between atoms: _85  and  _86
REMARK   39  A    between atoms: _85  and  _88
REMARK   40  A    between atoms: _88  and  _89
REMARK   41  A    between atoms: _91  and  _93
REMARK   42  A    between atoms: _93  and  _94
REMARK   43  A    between atoms: _97  and  _99
REMARK   44  A    between atoms: _99  and  _100
REMARK   45  A    between atoms: _102  and  _104
REMARK   46  A    between atoms: _104  and  _105
REMARK   47  A    between atoms: _107  and  _109
REMARK   48  A    between atoms: _109  and  _110
REMARK   49  A    between atoms: _109  and  _112
REMARK   50  A    between atoms: _112  and  _113
REMARK   51  A    between atoms: _116  and  _118
REMARK   52  A    between atoms: _118  and  _119
REMARK   53  A    between atoms: _118  and  _121
REMARK   54  A    between atoms: _121  and  _122
REMARK   55  A    between atoms: _127  and  _129
REMARK   56  A    between atoms: _129  and  _130
REMARK   57  A    between atoms: _129  and  _132
REMARK   58  A    between atoms: _135  and  _137
REMARK   59  A    between atoms: _137  and  _138
REMARK   60  A    between atoms: _137  and  _140
REMARK   61  A    between atoms: _140  and  _141
REMARK   62  A    between atoms: _143  and  _145
REMARK   63  A    between atoms: _145  and  _146
REMARK   64  A    between atoms: _148  and  _150
REMARK   65  A    between atoms: _150  and  _151
REMARK   66  A    between atoms: _150  and  _153
REMARK   67  A    between atoms: _153  and  _154
REMARK   68  A    between atoms: _157  and  _159
REMARK   69  A    between atoms: _159  and  _160
REMARK   70  A    between atoms: _163  and  _165
REMARK   71  A    between atoms: _165  and  _166
REMARK   72  A    between atoms: _165  and  _168
REMARK   73  A    between atoms: _168  and  _169
REMARK   74  A    between atoms: _175  and  _177
REMARK   75  A    between atoms: _177  and  _178
REMARK   76  A    between atoms: _177  and  _180
REMARK   77  A    between atoms: _180  and  _181
REMARK   78  A    between atoms: _184  and  _186
REMARK   79  A    between atoms: _186  and  _187
REMARK   80  A    between atoms: _186  and  _189
REMARK   81  A    between atoms: _189  and  _190
REMARK   82  A    between atoms: _195  and  _197
REMARK   83  A    between atoms: _197  and  _198
REMARK   84  A    between atoms: _200  and  _202
REMARK   85  A    between atoms: _202  and  _203
REMARK   86  A    between atoms: _202  and  _205
REMARK   87  A    between atoms: _205  and  _206
REMARK   88  A    between atoms: _209  and  _211
REMARK   89  A    between atoms: _211  and  _212
REMARK   90  A    between atoms: _211  and  _214
REMARK   91  A    between atoms: _214  and  _215
REMARK   92  A    between atoms: _218  and  _220
REMARK   93  A    between atoms: _220  and  _221
REMARK   94  A    between atoms: _224  and  _226
REMARK   95  A    between atoms: _226  and  _227
REMARK   96  A    between atoms: _226  and  _229
REMARK   97  A    between atoms: _232  and  _234
REMARK   98  A    between atoms: _234  and  _235
REMARK   99  A    between atoms: _234  and  _237
REMARK  100  A    between atoms: _237  and  _238
REMARK  101  A    between atoms: _238  and  _239
REMARK  102  A    between atoms: _242  and  _244
REMARK  103  A    between atoms: _244  and  _245
REMARK  104  A    between atoms: _244  and  _247
REMARK  105  A    between atoms: _247  and  _248
REMARK  106  A    between atoms: _248  and  _249
REMARK  107  A    between atoms: _251  and  _253
REMARK  108  A    between atoms: _253  and  _254
REMARK  109  A    between atoms: _253  and  _256
REMARK  110  A    between atoms: _256  and  _257
REMARK  111  A    between atoms: _257  and  _258
REMARK  112  A    between atoms: _261  and  _263
REMARK  113  A    between atoms: _263  and  _264
REMARK  114  A    between atoms: _267  and  _269
REMARK  115  A    between atoms: _269  and  _270
REMARK  116  A    between atoms: _269  and  _272
REMARK  117  A    between atoms: _272  and  _273
REMARK  118  A    between atoms: _273  and  _274
REMARK  119  A    between atoms: _274  and  _275
REMARK  120  A    between atoms: _284  and  _286
REMARK  121  A    between atoms: _286  and  _287
REMARK  122  A    between atoms: _290  and  _292
REMARK  123  A    between atoms: _292  and  _293
REMARK  124  A    between atoms: _292  and  _295
REMARK  125  A    between atoms: _295  and  _296
REMARK  126  A    between atoms: _299  and  _301
REMARK  127  A    between atoms: _301  and  _302
REMARK  128  A    between atoms: _301  and  _304
REMARK  129  A    between atoms: _304  and  _305
REMARK  130  A    between atoms: _307  and  _309
REMARK  131  A    between atoms: _309  and  _310
REMARK  132  A    between atoms: _309  and  _312
REMARK  133  A    between atoms: _312  and  _313
REMARK  134  A    between atoms: _316  and  _318
REMARK  135  A    between atoms: _318  and  _319
REMARK  136  A    between atoms: _318  and  _321
REMARK  137  A    between atoms: _324  and  _326
REMARK  138  A    between atoms: _326  and  _327
REMARK  139  A    between atoms: _330  and  _332
REMARK  140  A    between atoms: _332  and  _333
REMARK  141  A    between atoms: _332  and  _335
REMARK  142  A    between atoms: _335  and  _336
REMARK  143  A    between atoms: _339  and  _341
REMARK  144  A    between atoms: _341  and  _342
REMARK  145  A    between atoms: _341  and  _344
REMARK  146  A    between atoms: _344  and  _345
REMARK  147  A    between atoms: _345  and  _346
REMARK  148  A    between atoms: _351  and  _353
REMARK  149  A    between atoms: _353  and  _354
REMARK  150  A    between atoms: _353  and  _356
REMARK  151  A    between atoms: _356  and  _357
REMARK  152  A    between atoms: _359  and  _361
REMARK  153  A    between atoms: _361  and  _362
REMARK  154  A    between atoms: _361  and  _364
REMARK  155  A    between atoms: _364  and  _365
REMARK  156  A    between atoms: _370  and  _372
REMARK  157  A    between atoms: _372  and  _373
REMARK  158  A    between atoms: _372  and  _375
REMARK  159  A    between atoms: _375  and  _376
REMARK  160  A    between atoms: _378  and  _380
REMARK  161  A    between atoms: _380  and  _381
REMARK  162  A    between atoms: _380  and  _383
REMARK  163  A    between atoms: _383  and  _384
REMARK  164  A    between atoms: _390  and  _392
REMARK  165  A    between atoms: _392  and  _393
REMARK  166  A    between atoms: _392  and  _395
REMARK  167  A    between atoms: _395  and  _396
REMARK  168  A    between atoms: _399  and  _401
REMARK  169  A    between atoms: _401  and  _402
REMARK  170  A    between atoms: _401  and  _404
REMARK  171  A    between atoms: _404  and  _405
REMARK  172  A    between atoms: _408  and  _410
REMARK  173  A    between atoms: _410  and  _411
REMARK  174  A    between atoms: _414  and  _416
REMARK  175  A    between atoms: _416  and  _417
REMARK  176  A    between atoms: _416  and  _419
REMARK  177  A    between atoms: _419  and  _420
REMARK  178  A    between atoms: _423  and  _425
REMARK  179  A    between atoms: _425  and  _426
REMARK  180  A    between atoms: _425  and  _428
REMARK  181  A    between atoms: _431  and  _433
REMARK  182  A    between atoms: _433  and  _434
REMARK  183  A    between atoms: _437  and  _439
REMARK  184  A    between atoms: _439  and  _440
REMARK  185  A    between atoms: _439  and  _442
REMARK  186  A    between atoms: _442  and  _443
REMARK  187  A    between atoms: _449  and  _451
REMARK  188  A    between atoms: _451  and  _452
REMARK  189  A    between atoms: _451  and  _454
REMARK  190  A    between atoms: _454  and  _455
REMARK  191  A    between atoms: _460  and  _461
REMARK  192  A    between atoms: _463  and  _465
REMARK  193  A    between atoms: _465  and  _466
REMARK  194  A    between atoms: _465  and  _468
REMARK  195  A    between atoms: _468  and  _469
REMARK  196  A    between atoms: _473  and  _474
REMARK                            x       y       z     vdW  Elec       q    Type
REMARK                         _______ _______ _______ _____ _____    ______ ____
ROOT
ATOM      1  O   HOH     1      64.194  76.218  25.179  0.00  0.00    +0.000 OA
ENDROOT
TORSDOF 0
REMARK  Name = ../refined-set-2016/1y6q/1y6q_pocket.pdb
REMARK  196 active torsions:
REMARK  status: ('A' for Active; 'I' for Inactive)
REMARK    1  A    between atoms: _1  and  _3
REMARK    2  A    between atoms: _3  and  _4
REMARK    3  A    between atoms: _6  and  _8
REMARK    4  A    between atoms: _8  and  _9
REMARK    5  A    between atoms: _12  and  _14
REMARK    6  A    between atoms: _14  and  _15
REMARK    7  A    between atoms: _14  and  _17
REMARK    8  A    between atoms: _17  and  _18
REMARK    9  A    between atoms: _18  and  _19
REMARK   10  A    between atoms: _21  and  _23
REMARK   11  A    between atoms: _23  and  _24
REMARK   12  A    between atoms: _23  and  _26
REMARK   13  A    between atoms: _26  and  _27
REMARK   14  A    between atoms: _27  and  _28
REMARK   15  A    between atoms: _31  and  _33
REMARK   16  A    between atoms: _33  and  _34
REMARK   17  A    between atoms: _33  and  _36
REMARK   18  A    between atoms: _36  and  _37
REMARK   19  A    between atoms: _39  and  _41
REMARK   20  A    between atoms: _41  and  _42
REMARK   21  A    between atoms: _44  and  _46
REMARK   22  A    between atoms: _46  and  _47
REMARK   23  A    between atoms: _46  and  _49
REMARK   24  A    between atoms: _49  and  _50
REMARK   25  A    between atoms: _53  and  _55
REMARK   26  A    between atoms: _55  and  _56
REMARK   27  A    between atoms: _58  and  _60
REMARK   28  A    between atoms: _60  and  _61
REMARK   29  A    between atoms: _60  and  _63
REMARK   30  A    between atoms: _63  and  _64
REMARK   31  A    between atoms: _69  and  _71
REMARK   32  A    between atoms: _71  and  _72
REMARK   33  A    between atoms: _71  and  _74
REMARK   34  A    between atoms: _74  and  _75
REMARK   35  A    between atoms: _78  and  _80
REMARK   36  A    between atoms: _80  and  _81
REMARK   37  A    between atoms: _83  and  _85
REMARK   38  A    between atoms: _85  and  _86
REMARK   39  A    between atoms: _85  and  _88
REMARK   40  A    between atoms: _88  and  _89
REMARK   41  A    between atoms: _91  and  _93
REMARK   42  A    between atoms: _93  and  _94
REMARK   43  A    between atoms: _97  and  _99
REMARK   44  A    between atoms: _99  and  _100
REMARK   45  A    between atoms: _102  and  _104
REMARK   46  A    between atoms: _104  and  _105
REMARK   47  A    between atoms: _107  and  _109
REMARK   48  A    between atoms: _109  and  _110
REMARK   49  A    between atoms: _109  and  _112
REMARK   50  A    between atoms: _112  and  _113
REMARK   51  A    between atoms: _116  and  _118
REMARK   52  A    between atoms: _118  and  _119
REMARK   53  A    between atoms: _118  and  _121
REMARK   54  A    between atoms: _121  and  _122
REMARK   55  A    between atoms: _127  and  _129
REMARK   56  A    between atoms: _129  and  _130
REMARK   57  A    between atoms: _129  and  _132
REMARK   58  A    between atoms: _135  and  _137
REMARK   59  A    between atoms: _137  and  _138
REMARK   60  A    between atoms: _137  and  _140
REMARK   61  A    between atoms: _140  and  _141
REMARK   62  A    between atoms: _143  and  _145
REMARK   63  A    between atoms: _145  and  _146
REMARK   64  A    between atoms: _148  and  _150
REMARK   65  A    between atoms: _150  and  _151
REMARK   66  A    between atoms: _150  and  _153
REMARK   67  A    between atoms: _153  and  _154
REMARK   68  A    between atoms: _157  and  _159
REMARK   69  A    between atoms: _159  and  _160
REMARK   70  A    between atoms: _163  and  _165
REMARK   71  A    between atoms: _165  and  _166
REMARK   72  A    between atoms: _165  and  _168
REMARK   73  A    between atoms: _168  and  _169
REMARK   74  A    between atoms: _175  and  _177
REMARK   75  A    between atoms: _177  and  _178
REMARK   76  A    between atoms: _177  and  _180
REMARK   77  A    between atoms: _180  and  _181
REMARK   78  A    between atoms: _184  and  _186
REMARK   79  A    between atoms: _186  and  _187
REMARK   80  A    between atoms: _186  and  _189
REMARK   81  A    between atoms: _189  and  _190
REMARK   82  A    between atoms: _195  and  _197
REMARK   83  A    between atoms: _197  and  _198
REMARK   84  A    between atoms: _200  and  _202
REMARK   85  A    between atoms: _202  and  _203
REMARK   86  A    between atoms: _202  and  _205
REMARK   87  A    between atoms: _205  and  _206
REMARK   88  A    between atoms: _209  and  _211
REMARK   89  A    between atoms: _211  and  _212
REMARK   90  A    between atoms: _211  and  _214
REMARK   91  A    between atoms: _214  and  _215
REMARK   92  A    between atoms: _218  and  _220
REMARK   93  A    between atoms: _220  and  _221
REMARK   94  A    between atoms: _224  and  _226
REMARK   95  A    between atoms: _226  and  _227
REMARK   96  A    between atoms: _226  and  _229
REMARK   97  A    between atoms: _232  and  _234
REMARK   98  A    between atoms: _234  and  _235
REMARK   99  A    between atoms: _234  and  _237
REMARK  100  A    between atoms: _237  and  _238
REMARK  101  A    between atoms: _238  and  _239
REMARK  102  A    between atoms: _242  and  _244
REMARK  103  A    between atoms: _244  and  _245
REMARK  104  A    between atoms: _244  and  _247
REMARK  105  A    between atoms: _247  and  _248
REMARK  106  A    between atoms: _248  and  _249
REMARK  107  A    between atoms: _251  and  _253
REMARK  108  A    between atoms: _253  and  _254
REMARK  109  A    between atoms: _253  and  _256
REMARK  110  A    between atoms: _256  and  _257
REMARK  111  A    between atoms: _257  and  _258
REMARK  112  A    between atoms: _261  and  _263
REMARK  113  A    between atoms: _263  and  _264
REMARK  114  A    between atoms: _267  and  _269
REMARK  115  A    between atoms: _269  and  _270
REMARK  116  A    between atoms: _269  and  _272
REMARK  117  A    between atoms: _272  and  _273
REMARK  118  A    between atoms: _273  and  _274
REMARK  119  A    between atoms: _274  and  _275
REMARK  120  A    between atoms: _284  and  _286
REMARK  121  A    between atoms: _286  and  _287
REMARK  122  A    between atoms: _290  and  _292
REMARK  123  A    between atoms: _292  and  _293
REMARK  124  A    between atoms: _292  and  _295
REMARK  125  A    between atoms: _295  and  _296
REMARK  126  A    between atoms: _299  and  _301
REMARK  127  A    between atoms: _301  and  _302
REMARK  128  A    between atoms: _301  and  _304
REMARK  129  A    between atoms: _304  and  _305
REMARK  130  A    between atoms: _307  and  _309
REMARK  131  A    between atoms: _309  and  _310
REMARK  132  A    between atoms: _309  and  _312
REMARK  133  A    between atoms: _312  and  _313
REMARK  134  A    between atoms: _316  and  _318
REMARK  135  A    between atoms: _318  and  _319
REMARK  136  A    between atoms: _318  and  _321
REMARK  137  A    between atoms: _324  and  _326
REMARK  138  A    between atoms: _326  and  _327
REMARK  139  A    between atoms: _330  and  _332
REMARK  140  A    between atoms: _332  and  _333
REMARK  141  A    between atoms: _332  and  _335
REMARK  142  A    between atoms: _335  and  _336
REMARK  143  A    between atoms: _339  and  _341
REMARK  144  A    between atoms: _341  and  _342
REMARK  145  A    between atoms: _341  and  _344
REMARK  146  A    between atoms: _344  and  _345
REMARK  147  A    between atoms: _345  and  _346
REMARK  148  A    between atoms: _351  and  _353
REMARK  149  A    between atoms: _353  and  _354
REMARK  150  A    between atoms: _353  and  _356
REMARK  151  A    between atoms: _356  and  _357
REMARK  152  A    between atoms: _359  and  _361
REMARK  153  A    between atoms: _361  and  _362
REMARK  154  A    between atoms: _361  and  _364
REMARK  155  A    between atoms: _364  and  _365
REMARK  156  A    between atoms: _370  and  _372
REMARK  157  A    between atoms: _372  and  _373
REMARK  158  A    between atoms: _372  and  _375
REMARK  159  A    between atoms: _375  and  _376
REMARK  160  A    between atoms: _378  and  _380
REMARK  161  A    between atoms: _380  and  _381
REMARK  162  A    between atoms: _380  and  _383
REMARK  163  A    between atoms: _383  and  _384
REMARK  164  A    between atoms: _390  and  _392
REMARK  165  A    between atoms: _392  and  _393
REMARK  166  A    between atoms: _392  and  _395
REMARK  167  A    between atoms: _395  and  _396
REMARK  168  A    between atoms: _399  and  _401
REMARK  169  A    between atoms: _401  and  _402
REMARK  170  A    between atoms: _401  and  _404
REMARK  171  A    between atoms: _404  and  _405
REMARK  172  A    between atoms: _408  and  _410
REMARK  173  A    between atoms: _410  and  _411
REMARK  174  A    between atoms: _414  and  _416
REMARK  175  A    between atoms: _416  and  _417
REMARK  176  A    between atoms: _416  and  _419
REMARK  177  A    between atoms: _419  and  _420
REMARK  178  A    between atoms: _423  and  _425
REMARK  179  A    between atoms: _425  and  _426
REMARK  180  A    between atoms: _425  and  _428
REMARK  181  A    between atoms: _431  and  _433
REMARK  182  A    between atoms: _433  and  _434
REMARK  183  A    between atoms: _437  and  _439
REMARK  184  A    between atoms: _439  and  _440
REMARK  185  A    between atoms: _439  and  _442
REMARK  186  A    between atoms: _442  and  _443
REMARK  187  A    between atoms: _449  and  _451
REMARK  188  A    between atoms: _451  and  _452
REMARK  189  A    between atoms: _451  and  _454
REMARK  190  A    between atoms: _454  and  _455
REMARK  191  A    between atoms: _460  and  _461
REMARK  192  A    between atoms: _463  and  _465
REMARK  193  A    between atoms: _465  and  _466
REMARK  194  A    between atoms: _465  and  _468
REMARK  195  A    between atoms: _468  and  _469
REMARK  196  A    between atoms: _473  and  _474
REMARK                            x       y       z     vdW  Elec       q    Type
REMARK                         _______ _______ _______ _____ _____    ______ ____
ROOT
ATOM      1  O   HOH     1      63.923  74.450  23.013  0.00  0.00    +0.000 OA
ENDROOT
TORSDOF 0
REMARK  Name = ../refined-set-2016/1y6q/1y6q_pocket.pdb
REMARK  196 active torsions:
REMARK  status: ('A' for Active; 'I' for Inactive)
REMARK    1  A    between atoms: _1  and  _3
REMARK    2  A    between atoms: _3  and  _4
REMARK    3  A    between atoms: _6  and  _8
REMARK    4  A    between atoms: _8  and  _9
REMARK    5  A    between atoms: _12  and  _14
REMARK    6  A    between atoms: _14  and  _15
REMARK    7  A    between atoms: _14  and  _17
REMARK    8  A    between atoms: _17  and  _18
REMARK    9  A    between atoms: _18  and  _19
REMARK   10  A    between atoms: _21  and  _23
REMARK   11  A    between atoms: _23  and  _24
REMARK   12  A    between atoms: _23  and  _26
REMARK   13  A    between atoms: _26  and  _27
REMARK   14  A    between atoms: _27  and  _28
REMARK   15  A    between atoms: _31  and  _33
REMARK   16  A    between atoms: _33  and  _34
REMARK   17  A    between atoms: _33  and  _36
REMARK   18  A    between atoms: _36  and  _37
REMARK   19  A    between atoms: _39  and  _41
REMARK   20  A    between atoms: _41  and  _42
REMARK   21  A    between atoms: _44  and  _46
REMARK   22  A    between atoms: _46  and  _47
REMARK   23  A    between atoms: _46  and  _49
REMARK   24  A    between atoms: _49  and  _50
REMARK   25  A    between atoms: _53  and  _55
REMARK   26  A    between atoms: _55  and  _56
REMARK   27  A    between atoms: _58  and  _60
REMARK   28  A    between atoms: _60  and  _61
REMARK   29  A    between atoms: _60  and  _63
REMARK   30  A    between atoms: _63  and  _64
REMARK   31  A    between atoms: _69  and  _71
REMARK   32  A    between atoms: _71  and  _72
REMARK   33  A    between atoms: _71  and  _74
REMARK   34  A    between atoms: _74  and  _75
REMARK   35  A    between atoms: _78  and  _80
REMARK   36  A    between atoms: _80  and  _81
REMARK   37  A    between atoms: _83  and  _85
REMARK   38  A    between atoms: _85  and  _86
REMARK   39  A    between atoms: _85  and  _88
REMARK   40  A    between atoms: _88  and  _89
REMARK   41  A    between atoms: _91  and  _93
REMARK   42  A    between atoms: _93  and  _94
REMARK   43  A    between atoms: _97  and  _99
REMARK   44  A    between atoms: _99  and  _100
REMARK   45  A    between atoms: _102  and  _104
REMARK   46  A    between atoms: _104  and  _105
REMARK   47  A    between atoms: _107  and  _109
REMARK   48  A    between atoms: _109  and  _110
REMARK   49  A    between atoms: _109  and  _112
REMARK   50  A    between atoms: _112  and  _113
REMARK   51  A    between atoms: _116  and  _118
REMARK   52  A    between atoms: _118  and  _119
REMARK   53  A    between atoms: _118  and  _121
REMARK   54  A    between atoms: _121  and  _122
REMARK   55  A    between atoms: _127  and  _129
REMARK   56  A    between atoms: _129  and  _130
REMARK   57  A    between atoms: _129  and  _132
REMARK   58  A    between atoms: _135  and  _137
REMARK   59  A    between atoms: _137  and  _138
REMARK   60  A    between atoms: _137  and  _140
REMARK   61  A    between atoms: _140  and  _141
REMARK   62  A    between atoms: _143  and  _145
REMARK   63  A    between atoms: _145  and  _146
REMARK   64  A    between atoms: _148  and  _150
REMARK   65  A    between atoms: _150  and  _151
REMARK   66  A    between atoms: _150  and  _153
REMARK   67  A    between atoms: _153  and  _154
REMARK   68  A    between atoms: _157  and  _159
REMARK   69  A    between atoms: _159  and  _160
REMARK   70  A    between atoms: _163  and  _165
REMARK   71  A    between atoms: _165  and  _166
REMARK   72  A    between atoms: _165  and  _168
REMARK   73  A    between atoms: _168  and  _169
REMARK   74  A    between atoms: _175  and  _177
REMARK   75  A    between atoms: _177  and  _178
REMARK   76  A    between atoms: _177  and  _180
REMARK   77  A    between atoms: _180  and  _181
REMARK   78  A    between atoms: _184  and  _186
REMARK   79  A    between atoms: _186  and  _187
REMARK   80  A    between atoms: _186  and  _189
REMARK   81  A    between atoms: _189  and  _190
REMARK   82  A    between atoms: _195  and  _197
REMARK   83  A    between atoms: _197  and  _198
REMARK   84  A    between atoms: _200  and  _202
REMARK   85  A    between atoms: _202  and  _203
REMARK   86  A    between atoms: _202  and  _205
REMARK   87  A    between atoms: _205  and  _206
REMARK   88  A    between atoms: _209  and  _211
REMARK   89  A    between atoms: _211  and  _212
REMARK   90  A    between atoms: _211  and  _214
REMARK   91  A    between atoms: _214  and  _215
REMARK   92  A    between atoms: _218  and  _220
REMARK   93  A    between atoms: _220  and  _221
REMARK   94  A    between atoms: _224  and  _226
REMARK   95  A    between atoms: _226  and  _227
REMARK   96  A    between atoms: _226  and  _229
REMARK   97  A    between atoms: _232  and  _234
REMARK   98  A    between atoms: _234  and  _235
REMARK   99  A    between atoms: _234  and  _237
REMARK  100  A    between atoms: _237  and  _238
REMARK  101  A    between atoms: _238  and  _239
REMARK  102  A    between atoms: _242  and  _244
REMARK  103  A    between atoms: _244  and  _245
REMARK  104  A    between atoms: _244  and  _247
REMARK  105  A    between atoms: _247  and  _248
REMARK  106  A    between atoms: _248  and  _249
REMARK  107  A    between atoms: _251  and  _253
REMARK  108  A    between atoms: _253  and  _254
REMARK  109  A    between atoms: _253  and  _256
REMARK  110  A    between atoms: _256  and  _257
REMARK  111  A    between atoms: _257  and  _258
REMARK  112  A    between atoms: _261  and  _263
REMARK  113  A    between atoms: _263  and  _264
REMARK  114  A    between atoms: _267  and  _269
REMARK  115  A    between atoms: _269  and  _270
REMARK  116  A    between atoms: _269  and  _272
REMARK  117  A    between atoms: _272  and  _273
REMARK  118  A    between atoms: _273  and  _274
REMARK  119  A    between atoms: _274  and  _275
REMARK  120  A    between atoms: _284  and  _286
REMARK  121  A    between atoms: _286  and  _287
REMARK  122  A    between atoms: _290  and  _292
REMARK  123  A    between atoms: _292  and  _293
REMARK  124  A    between atoms: _292  and  _295
REMARK  125  A    between atoms: _295  and  _296
REMARK  126  A    between atoms: _299  and  _301
REMARK  127  A    between atoms: _301  and  _302
REMARK  128  A    between atoms: _301  and  _304
REMARK  129  A    between atoms: _304  and  _305
REMARK  130  A    between atoms: _307  and  _309
REMARK  131  A    between atoms: _309  and  _310
REMARK  132  A    between atoms: _309  and  _312
REMARK  133  A    between atoms: _312  and  _313
REMARK  134  A    between atoms: _316  and  _318
REMARK  135  A    between atoms: _318  and  _319
REMARK  136  A    between atoms: _318  and  _321
REMARK  137  A    between atoms: _324  and  _326
REMARK  138  A    between atoms: _326  and  _327
REMARK  139  A    between atoms: _330  and  _332
REMARK  140  A    between atoms: _332  and  _333
REMARK  141  A    between atoms: _332  and  _335
REMARK  142  A    between atoms: _335  and  _336
REMARK  143  A    between atoms: _339  and  _341
REMARK  144  A    between atoms: _341  and  _342
REMARK  145  A    between atoms: _341  and  _344
REMARK  146  A    between atoms: _344  and  _345
REMARK  147  A    between atoms: _345  and  _346
REMARK  148  A    between atoms: _351  and  _353
REMARK  149  A    between atoms: _353  and  _354
REMARK  150  A    between atoms: _353  and  _356
REMARK  151  A    between atoms: _356  and  _357
REMARK  152  A    between atoms: _359  and  _361
REMARK  153  A    between atoms: _361  and  _362
REMARK  154  A    between atoms: _361  and  _364
REMARK  155  A    between atoms: _364  and  _365
REMARK  156  A    between atoms: _370  and  _372
REMARK  157  A    between atoms: _372  and  _373
REMARK  158  A    between atoms: _372  and  _375
REMARK  159  A    between atoms: _375  and  _376
REMARK  160  A    between atoms: _378  and  _380
REMARK  161  A    between atoms: _380  and  _381
REMARK  162  A    between atoms: _380  and  _383
REMARK  163  A    between atoms: _383  and  _384
REMARK  164  A    between atoms: _390  and  _392
REMARK  165  A    between atoms: _392  and  _393
REMARK  166  A    between atoms: _392  and  _395
REMARK  167  A    between atoms: _395  and  _396
REMARK  168  A    between atoms: _399  and  _401
REMARK  169  A    between atoms: _401  and  _402
REMARK  170  A    between atoms: _401  and  _404
REMARK  171  A    between atoms: _404  and  _405
REMARK  172  A    between atoms: _408  and  _410
REMARK  173  A    between atoms: _410  and  _411
REMARK  174  A    between atoms: _414  and  _416
REMARK  175  A    between atoms: _416  and  _417
REMARK  176  A    between atoms: _416  and  _419
REMARK  177  A    between atoms: _419  and  _420
REMARK  178  A    between atoms: _423  and  _425
REMARK  179  A    between atoms: _425  and  _426
REMARK  180  A    between atoms: _425  and  _428
REMARK  181  A    between atoms: _431  and  _433
REMARK  182  A    between atoms: _433  and  _434
REMARK  183  A    between atoms: _437  and  _439
REMARK  184  A    between atoms: _439  and  _440
REMARK  185  A    between atoms: _439  and  _442
REMARK  186  A    between atoms: _442  and  _443
REMARK  187  A    between atoms: _449  and  _451
REMARK  188  A    between atoms: _451  and  _452
REMARK  189  A    between atoms: _451  and  _454
REMARK  190  A    between atoms: _454  and  _455
REMARK  191  A    between atoms: _460  and  _461
REMARK  192  A    between atoms: _463  and  _465
REMARK  193  A    between atoms: _465  and  _466
REMARK  194  A    between atoms: _465  and  _468
REMARK  195  A    between atoms: _468  and  _469
REMARK  196  A    between atoms: _473  and  _474
REMARK                            x       y       z     vdW  Elec       q    Type
REMARK                         _______ _______ _______ _____ _____    ______ ____
ROOT
ATOM      1  O   HOH     1      61.474  73.873  22.221  0.00  0.00    +0.000 OA
ENDROOT
TORSDOF 0
REMARK  Name = ../refined-set-2016/1y6q/1y6q_pocket.pdb
REMARK  196 active torsions:
REMARK  status: ('A' for Active; 'I' for Inactive)
REMARK    1  A    between atoms: _1  and  _3
REMARK    2  A    between atoms: _3  and  _4
REMARK    3  A    between atoms: _6  and  _8
REMARK    4  A    between atoms: _8  and  _9
REMARK    5  A    between atoms: _12  and  _14
REMARK    6  A    between atoms: _14  and  _15
REMARK    7  A    between atoms: _14  and  _17
REMARK    8  A    between atoms: _17  and  _18
REMARK    9  A    between atoms: _18  and  _19
REMARK   10  A    between atoms: _21  and  _23
REMARK   11  A    between atoms: _23  and  _24
REMARK   12  A    between atoms: _23  and  _26
REMARK   13  A    between atoms: _26  and  _27
REMARK   14  A    between atoms: _27  and  _28
REMARK   15  A    between atoms: _31  and  _33
REMARK   16  A    between atoms: _33  and  _34
REMARK   17  A    between atoms: _33  and  _36
REMARK   18  A    between atoms: _36  and  _37
REMARK   19  A    between atoms: _39  and  _41
REMARK   20  A    between atoms: _41  and  _42
REMARK   21  A    between atoms: _44  and  _46
REMARK   22  A    between atoms: _46  and  _47
REMARK   23  A    between atoms: _46  and  _49
REMARK   24  A    between atoms: _49  and  _50
REMARK   25  A    between atoms: _53  and  _55
REMARK   26  A    between atoms: _55  and  _56
REMARK   27  A    between atoms: _58  and  _60
REMARK   28  A    between atoms: _60  and  _61
REMARK   29  A    between atoms: _60  and  _63
REMARK   30  A    between atoms: _63  and  _64
REMARK   31  A    between atoms: _69  and  _71
REMARK   32  A    between atoms: _71  and  _72
REMARK   33  A    between atoms: _71  and  _74
REMARK   34  A    between atoms: _74  and  _75
REMARK   35  A    between atoms: _78  and  _80
REMARK   36  A    between atoms: _80  and  _81
REMARK   37  A    between atoms: _83  and  _85
REMARK   38  A    between atoms: _85  and  _86
REMARK   39  A    between atoms: _85  and  _88
REMARK   40  A    between atoms: _88  and  _89
REMARK   41  A    between atoms: _91  and  _93
REMARK   42  A    between atoms: _93  and  _94
REMARK   43  A    between atoms: _97  and  _99
REMARK   44  A    between atoms: _99  and  _100
REMARK   45  A    between atoms: _102  and  _104
REMARK   46  A    between atoms: _104  and  _105
REMARK   47  A    between atoms: _107  and  _109
REMARK   48  A    between atoms: _109  and  _110
REMARK   49  A    between atoms: _109  and  _112
REMARK   50  A    between atoms: _112  and  _113
REMARK   51  A    between atoms: _116  and  _118
REMARK   52  A    between atoms: _118  and  _119
REMARK   53  A    between atoms: _118  and  _121
REMARK   54  A    between atoms: _121  and  _122
REMARK   55  A    between atoms: _127  and  _129
REMARK   56  A    between atoms: _129  and  _130
REMARK   57  A    between atoms: _129  and  _132
REMARK   58  A    between atoms: _135  and  _137
REMARK   59  A    between atoms: _137  and  _138
REMARK   60  A    between atoms: _137  and  _140
REMARK   61  A    between atoms: _140  and  _141
REMARK   62  A    between atoms: _143  and  _145
REMARK   63  A    between atoms: _145  and  _146
REMARK   64  A    between atoms: _148  and  _150
REMARK   65  A    between atoms: _150  and  _151
REMARK   66  A    between atoms: _150  and  _153
REMARK   67  A    between atoms: _153  and  _154
REMARK   68  A    between atoms: _157  and  _159
REMARK   69  A    between atoms: _159  and  _160
REMARK   70  A    between atoms: _163  and  _165
REMARK   71  A    between atoms: _165  and  _166
REMARK   72  A    between atoms: _165  and  _168
REMARK   73  A    between atoms: _168  and  _169
REMARK   74  A    between atoms: _175  and  _177
REMARK   75  A    between atoms: _177  and  _178
REMARK   76  A    between atoms: _177  and  _180
REMARK   77  A    between atoms: _180  and  _181
REMARK   78  A    between atoms: _184  and  _186
REMARK   79  A    between atoms: _186  and  _187
REMARK   80  A    between atoms: _186  and  _189
REMARK   81  A    between atoms: _189  and  _190
REMARK   82  A    between atoms: _195  and  _197
REMARK   83  A    between atoms: _197  and  _198
REMARK   84  A    between atoms: _200  and  _202
REMARK   85  A    between atoms: _202  and  _203
REMARK   86  A    between atoms: _202  and  _205
REMARK   87  A    between atoms: _205  and  _206
REMARK   88  A    between atoms: _209  and  _211
REMARK   89  A    between atoms: _211  and  _212
REMARK   90  A    between atoms: _211  and  _214
REMARK   91  A    between atoms: _214  and  _215
REMARK   92  A    between atoms: _218  and  _220
REMARK   93  A    between atoms: _220  and  _221
REMARK   94  A    between atoms: _224  and  _226
REMARK   95  A    between atoms: _226  and  _227
REMARK   96  A    between atoms: _226  and  _229
REMARK   97  A    between atoms: _232  and  _234
REMARK   98  A    between atoms: _234  and  _235
REMARK   99  A    between atoms: _234  and  _237
REMARK  100  A    between atoms: _237  and  _238
REMARK  101  A    between atoms: _238  and  _239
REMARK  102  A    between atoms: _242  and  _244
REMARK  103  A    between atoms: _244  and  _245
REMARK  104  A    between atoms: _244  and  _247
REMARK  105  A    between atoms: _247  and  _248
REMARK  106  A    between atoms: _248  and  _249
REMARK  107  A    between atoms: _251  and  _253
REMARK  108  A    between atoms: _253  and  _254
REMARK  109  A    between atoms: _253  and  _256
REMARK  110  A    between atoms: _256  and  _257
REMARK  111  A    between atoms: _257  and  _258
REMARK  112  A    between atoms: _261  and  _263
REMARK  113  A    between atoms: _263  and  _264
REMARK  114  A    between atoms: _267  and  _269
REMARK  115  A    between atoms: _269  and  _270
REMARK  116  A    between atoms: _269  and  _272
REMARK  117  A    between atoms: _272  and  _273
REMARK  118  A    between atoms: _273  and  _274
REMARK  119  A    between atoms: _274  and  _275
REMARK  120  A    between atoms: _284  and  _286
REMARK  121  A    between atoms: _286  and  _287
REMARK  122  A    between atoms: _290  and  _292
REMARK  123  A    between atoms: _292  and  _293
REMARK  124  A    between atoms: _292  and  _295
REMARK  125  A    between atoms: _295  and  _296
REMARK  126  A    between atoms: _299  and  _301
REMARK  127  A    between atoms: _301  and  _302
REMARK  128  A    between atoms: _301  and  _304
REMARK  129  A    between atoms: _304  and  _305
REMARK  130  A    between atoms: _307  and  _309
REMARK  131  A    between atoms: _309  and  _310
REMARK  132  A    between atoms: _309  and  _312
REMARK  133  A    between atoms: _312  and  _313
REMARK  134  A    between atoms: _316  and  _318
REMARK  135  A    between atoms: _318  and  _319
REMARK  136  A    between atoms: _318  and  _321
REMARK  137  A    between atoms: _324  and  _326
REMARK  138  A    between atoms: _326  and  _327
REMARK  139  A    between atoms: _330  and  _332
REMARK  140  A    between atoms: _332  and  _333
REMARK  141  A    between atoms: _332  and  _335
REMARK  142  A    between atoms: _335  and  _336
REMARK  143  A    between atoms: _339  and  _341
REMARK  144  A    between atoms: _341  and  _342
REMARK  145  A    between atoms: _341  and  _344
REMARK  146  A    between atoms: _344  and  _345
REMARK  147  A    between atoms: _345  and  _346
REMARK  148  A    between atoms: _351  and  _353
REMARK  149  A    between atoms: _353  and  _354
REMARK  150  A    between atoms: _353  and  _356
REMARK  151  A    between atoms: _356  and  _357
REMARK  152  A    between atoms: _359  and  _361
REMARK  153  A    between atoms: _361  and  _362
REMARK  154  A    between atoms: _361  and  _364
REMARK  155  A    between atoms: _364  and  _365
REMARK  156  A    between atoms: _370  and  _372
REMARK  157  A    between atoms: _372  and  _373
REMARK  158  A    between atoms: _372  and  _375
REMARK  159  A    between atoms: _375  and  _376
REMARK  160  A    between atoms: _378  and  _380
REMARK  161  A    between atoms: _380  and  _381
REMARK  162  A    between atoms: _380  and  _383
REMARK  163  A    between atoms: _383  and  _384
REMARK  164  A    between atoms: _390  and  _392
REMARK  165  A    between atoms: _392  and  _393
REMARK  166  A    between atoms: _392  and  _395
REMARK  167  A    between atoms: _395  and  _396
REMARK  168  A    between atoms: _399  and  _401
REMARK  169  A    between atoms: _401  and  _402
REMARK  170  A    between atoms: _401  and  _404
REMARK  171  A    between atoms: _404  and  _405
REMARK  172  A    between atoms: _408  and  _410
REMARK  173  A    between atoms: _410  and  _411
REMARK  174  A    between atoms: _414  and  _416
REMARK  175  A    between atoms: _416  and  _417
REMARK  176  A    between atoms: _416  and  _419
REMARK  177  A    between atoms: _419  and  _420
REMARK  178  A    between atoms: _423  and  _425
REMARK  179  A    between atoms: _425  and  _426
REMARK  180  A    between atoms: _425  and  _428
REMARK  181  A    between atoms: _431  and  _433
REMARK  182  A    between atoms: _433  and  _434
REMARK  183  A    between atoms: _437  and  _439
REMARK  184  A    between atoms: _439  and  _440
REMARK  185  A    between atoms: _439  and  _442
REMARK  186  A    between atoms: _442  and  _443
REMARK  187  A    between atoms: _449  and  _451
REMARK  188  A    between atoms: _451  and  _452
REMARK  189  A    between atoms: _451  and  _454
REMARK  190  A    between atoms: _454  and  _455
REMARK  191  A    between atoms: _460  and  _461
REMARK  192  A    between atoms: _463  and  _465
REMARK  193  A    between atoms: _465  and  _466
REMARK  194  A    between atoms: _465  and  _468
REMARK  195  A    between atoms: _468  and  _469
REMARK  196  A    between atoms: _473  and  _474
REMARK                            x       y       z     vdW  Elec       q    Type
REMARK                         _______ _______ _______ _____ _____    ______ ____
ROOT
ATOM      1  O   HOH     1      52.412  77.816  23.325  0.00  0.00    +0.000 OA
ENDROOT
TORSDOF 0
REMARK  Name = ../refined-set-2016/1y6q/1y6q_pocket.pdb
REMARK  196 active torsions:
REMARK  status: ('A' for Active; 'I' for Inactive)
REMARK    1  A    between atoms: _1  and  _3
REMARK    2  A    between atoms: _3  and  _4
REMARK    3  A    between atoms: _6  and  _8
REMARK    4  A    between atoms: _8  and  _9
REMARK    5  A    between atoms: _12  and  _14
REMARK    6  A    between atoms: _14  and  _15
REMARK    7  A    between atoms: _14  and  _17
REMARK    8  A    between atoms: _17  and  _18
REMARK    9  A    between atoms: _18  and  _19
REMARK   10  A    between atoms: _21  and  _23
REMARK   11  A    between atoms: _23  and  _24
REMARK   12  A    between atoms: _23  and  _26
REMARK   13  A    between atoms: _26  and  _27
REMARK   14  A    between atoms: _27  and  _28
REMARK   15  A    between atoms: _31  and  _33
REMARK   16  A    between atoms: _33  and  _34
REMARK   17  A    between atoms: _33  and  _36
REMARK   18  A    between atoms: _36  and  _37
REMARK   19  A    between atoms: _39  and  _41
REMARK   20  A    between atoms: _41  and  _42
REMARK   21  A    between atoms: _44  and  _46
REMARK   22  A    between atoms: _46  and  _47
REMARK   23  A    between atoms: _46  and  _49
REMARK   24  A    between atoms: _49  and  _50
REMARK   25  A    between atoms: _53  and  _55
REMARK   26  A    between atoms: _55  and  _56
REMARK   27  A    between atoms: _58  and  _60
REMARK   28  A    between atoms: _60  and  _61
REMARK   29  A    between atoms: _60  and  _63
REMARK   30  A    between atoms: _63  and  _64
REMARK   31  A    between atoms: _69  and  _71
REMARK   32  A    between atoms: _71  and  _72
REMARK   33  A    between atoms: _71  and  _74
REMARK   34  A    between atoms: _74  and  _75
REMARK   35  A    between atoms: _78  and  _80
REMARK   36  A    between atoms: _80  and  _81
REMARK   37  A    between atoms: _83  and  _85
REMARK   38  A    between atoms: _85  and  _86
REMARK   39  A    between atoms: _85  and  _88
REMARK   40  A    between atoms: _88  and  _89
REMARK   41  A    between atoms: _91  and  _93
REMARK   42  A    between atoms: _93  and  _94
REMARK   43  A    between atoms: _97  and  _99
REMARK   44  A    between atoms: _99  and  _100
REMARK   45  A    between atoms: _102  and  _104
REMARK   46  A    between atoms: _104  and  _105
REMARK   47  A    between atoms: _107  and  _109
REMARK   48  A    between atoms: _109  and  _110
REMARK   49  A    between atoms: _109  and  _112
REMARK   50  A    between atoms: _112  and  _113
REMARK   51  A    between atoms: _116  and  _118
REMARK   52  A    between atoms: _118  and  _119
REMARK   53  A    between atoms: _118  and  _121
REMARK   54  A    between atoms: _121  and  _122
REMARK   55  A    between atoms: _127  and  _129
REMARK   56  A    between atoms: _129  and  _130
REMARK   57  A    between atoms: _129  and  _132
REMARK   58  A    between atoms: _135  and  _137
REMARK   59  A    between atoms: _137  and  _138
REMARK   60  A    between atoms: _137  and  _140
REMARK   61  A    between atoms: _140  and  _141
REMARK   62  A    between atoms: _143  and  _145
REMARK   63  A    between atoms: _145  and  _146
REMARK   64  A    between atoms: _148  and  _150
REMARK   65  A    between atoms: _150  and  _151
REMARK   66  A    between atoms: _150  and  _153
REMARK   67  A    between atoms: _153  and  _154
REMARK   68  A    between atoms: _157  and  _159
REMARK   69  A    between atoms: _159  and  _160
REMARK   70  A    between atoms: _163  and  _165
REMARK   71  A    between atoms: _165  and  _166
REMARK   72  A    between atoms: _165  and  _168
REMARK   73  A    between atoms: _168  and  _169
REMARK   74  A    between atoms: _175  and  _177
REMARK   75  A    between atoms: _177  and  _178
REMARK   76  A    between atoms: _177  and  _180
REMARK   77  A    between atoms: _180  and  _181
REMARK   78  A    between atoms: _184  and  _186
REMARK   79  A    between atoms: _186  and  _187
REMARK   80  A    between atoms: _186  and  _189
REMARK   81  A    between atoms: _189  and  _190
REMARK   82  A    between atoms: _195  and  _197
REMARK   83  A    between atoms: _197  and  _198
REMARK   84  A    between atoms: _200  and  _202
REMARK   85  A    between atoms: _202  and  _203
REMARK   86  A    between atoms: _202  and  _205
REMARK   87  A    between atoms: _205  and  _206
REMARK   88  A    between atoms: _209  and  _211
REMARK   89  A    between atoms: _211  and  _212
REMARK   90  A    between atoms: _211  and  _214
REMARK   91  A    between atoms: _214  and  _215
REMARK   92  A    between atoms: _218  and  _220
REMARK   93  A    between atoms: _220  and  _221
REMARK   94  A    between atoms: _224  and  _226
REMARK   95  A    between atoms: _226  and  _227
REMARK   96  A    between atoms: _226  and  _229
REMARK   97  A    between atoms: _232  and  _234
REMARK   98  A    between atoms: _234  and  _235
REMARK   99  A    between atoms: _234  and  _237
REMARK  100  A    between atoms: _237  and  _238
REMARK  101  A    between atoms: _238  and  _239
REMARK  102  A    between atoms: _242  and  _244
REMARK  103  A    between atoms: _244  and  _245
REMARK  104  A    between atoms: _244  and  _247
REMARK  105  A    between atoms: _247  and  _248
REMARK  106  A    between atoms: _248  and  _249
REMARK  107  A    between atoms: _251  and  _253
REMARK  108  A    between atoms: _253  and  _254
REMARK  109  A    between atoms: _253  and  _256
REMARK  110  A    between atoms: _256  and  _257
REMARK  111  A    between atoms: _257  and  _258
REMARK  112  A    between atoms: _261  and  _263
REMARK  113  A    between atoms: _263  and  _264
REMARK  114  A    between atoms: _267  and  _269
REMARK  115  A    between atoms: _269  and  _270
REMARK  116  A    between atoms: _269  and  _272
REMARK  117  A    between atoms: _272  and  _273
REMARK  118  A    between atoms: _273  and  _274
REMARK  119  A    between atoms: _274  and  _275
REMARK  120  A    between atoms: _284  and  _286
REMARK  121  A    between atoms: _286  and  _287
REMARK  122  A    between atoms: _290  and  _292
REMARK  123  A    between atoms: _292  and  _293
REMARK  124  A    between atoms: _292  and  _295
REMARK  125  A    between atoms: _295  and  _296
REMARK  126  A    between atoms: _299  and  _301
REMARK  127  A    between atoms: _301  and  _302
REMARK  128  A    between atoms: _301  and  _304
REMARK  129  A    between atoms: _304  and  _305
REMARK  130  A    between atoms: _307  and  _309
REMARK  131  A    between atoms: _309  and  _310
REMARK  132  A    between atoms: _309  and  _312
REMARK  133  A    between atoms: _312  and  _313
REMARK  134  A    between atoms: _316  and  _318
REMARK  135  A    between atoms: _318  and  _319
REMARK  136  A    between atoms: _318  and  _321
REMARK  137  A    between atoms: _324  and  _326
REMARK  138  A    between atoms: _326  and  _327
REMARK  139  A    between atoms: _330  and  _332
REMARK  140  A    between atoms: _332  and  _333
REMARK  141  A    between atoms: _332  and  _335
REMARK  142  A    between atoms: _335  and  _336
REMARK  143  A    between atoms: _339  and  _341
REMARK  144  A    between atoms: _341  and  _342
REMARK  145  A    between atoms: _341  and  _344
REMARK  146  A    between atoms: _344  and  _345
REMARK  147  A    between atoms: _345  and  _346
REMARK  148  A    between atoms: _351  and  _353
REMARK  149  A    between atoms: _353  and  _354
REMARK  150  A    between atoms: _353  and  _356
REMARK  151  A    between atoms: _356  and  _357
REMARK  152  A    between atoms: _359  and  _361
REMARK  153  A    between atoms: _361  and  _362
REMARK  154  A    between atoms: _361  and  _364
REMARK  155  A    between atoms: _364  and  _365
REMARK  156  A    between atoms: _370  and  _372
REMARK  157  A    between atoms: _372  and  _373
REMARK  158  A    between atoms: _372  and  _375
REMARK  159  A    between atoms: _375  and  _376
REMARK  160  A    between atoms: _378  and  _380
REMARK  161  A    between atoms: _380  and  _381
REMARK  162  A    between atoms: _380  and  _383
REMARK  163  A    between atoms: _383  and  _384
REMARK  164  A    between atoms: _390  and  _392
REMARK  165  A    between atoms: _392  and  _393
REMARK  166  A    between atoms: _392  and  _395
REMARK  167  A    between atoms: _395  and  _396
REMARK  168  A    between atoms: _399  and  _401
REMARK  169  A    between atoms: _401  and  _402
REMARK  170  A    between atoms: _401  and  _404
REMARK  171  A    between atoms: _404  and  _405
REMARK  172  A    between atoms: _408  and  _410
REMARK  173  A    between atoms: _410  and  _411
REMARK  174  A    between atoms: _414  and  _416
REMARK  175  A    between atoms: _416  and  _417
REMARK  176  A    between atoms: _416  and  _419
REMARK  177  A    between atoms: _419  and  _420
REMARK  178  A    between atoms: _423  and  _425
REMARK  179  A    between atoms: _425  and  _426
REMARK  180  A    between atoms: _425  and  _428
REMARK  181  A    between atoms: _431  and  _433
REMARK  182  A    between atoms: _433  and  _434
REMARK  183  A    between atoms: _437  and  _439
REMARK  184  A    between atoms: _439  and  _440
REMARK  185  A    between atoms: _439  and  _442
REMARK  186  A    between atoms: _442  and  _443
REMARK  187  A    between atoms: _449  and  _451
REMARK  188  A    between atoms: _451  and  _452
REMARK  189  A    between atoms: _451  and  _454
REMARK  190  A    between atoms: _454  and  _455
REMARK  191  A    between atoms: _460  and  _461
REMARK  192  A    between atoms: _463  and  _465
REMARK  193  A    between atoms: _465  and  _466
REMARK  194  A    between atoms: _465  and  _468
REMARK  195  A    between atoms: _468  and  _469
REMARK  196  A    between atoms: _473  and  _474
REMARK                            x       y       z     vdW  Elec       q    Type
REMARK                         _______ _______ _______ _____ _____    ______ ____
ROOT
ATOM      1  O   HOH     1      45.589  74.657  19.925  0.00  0.00    +0.000 OA
ENDROOT
TORSDOF 0
REMARK  Name = ../refined-set-2016/1y6q/1y6q_pocket.pdb
REMARK  196 active torsions:
REMARK  status: ('A' for Active; 'I' for Inactive)
REMARK    1  A    between atoms: _1  and  _3
REMARK    2  A    between atoms: _3  and  _4
REMARK    3  A    between atoms: _6  and  _8
REMARK    4  A    between atoms: _8  and  _9
REMARK    5  A    between atoms: _12  and  _14
REMARK    6  A    between atoms: _14  and  _15
REMARK    7  A    between atoms: _14  and  _17
REMARK    8  A    between atoms: _17  and  _18
REMARK    9  A    between atoms: _18  and  _19
REMARK   10  A    between atoms: _21  and  _23
REMARK   11  A    between atoms: _23  and  _24
REMARK   12  A    between atoms: _23  and  _26
REMARK   13  A    between atoms: _26  and  _27
REMARK   14  A    between atoms: _27  and  _28
REMARK   15  A    between atoms: _31  and  _33
REMARK   16  A    between atoms: _33  and  _34
REMARK   17  A    between atoms: _33  and  _36
REMARK   18  A    between atoms: _36  and  _37
REMARK   19  A    between atoms: _39  and  _41
REMARK   20  A    between atoms: _41  and  _42
REMARK   21  A    between atoms: _44  and  _46
REMARK   22  A    between atoms: _46  and  _47
REMARK   23  A    between atoms: _46  and  _49
REMARK   24  A    between atoms: _49  and  _50
REMARK   25  A    between atoms: _53  and  _55
REMARK   26  A    between atoms: _55  and  _56
REMARK   27  A    between atoms: _58  and  _60
REMARK   28  A    between atoms: _60  and  _61
REMARK   29  A    between atoms: _60  and  _63
REMARK   30  A    between atoms: _63  and  _64
REMARK   31  A    between atoms: _69  and  _71
REMARK   32  A    between atoms: _71  and  _72
REMARK   33  A    between atoms: _71  and  _74
REMARK   34  A    between atoms: _74  and  _75
REMARK   35  A    between atoms: _78  and  _80
REMARK   36  A    between atoms: _80  and  _81
REMARK   37  A    between atoms: _83  and  _85
REMARK   38  A    between atoms: _85  and  _86
REMARK   39  A    between atoms: _85  and  _88
REMARK   40  A    between atoms: _88  and  _89
REMARK   41  A    between atoms: _91  and  _93
REMARK   42  A    between atoms: _93  and  _94
REMARK   43  A    between atoms: _97  and  _99
REMARK   44  A    between atoms: _99  and  _100
REMARK   45  A    between atoms: _102  and  _104
REMARK   46  A    between atoms: _104  and  _105
REMARK   47  A    between atoms: _107  and  _109
REMARK   48  A    between atoms: _109  and  _110
REMARK   49  A    between atoms: _109  and  _112
REMARK   50  A    between atoms: _112  and  _113
REMARK   51  A    between atoms: _116  and  _118
REMARK   52  A    between atoms: _118  and  _119
REMARK   53  A    between atoms: _118  and  _121
REMARK   54  A    between atoms: _121  and  _122
REMARK   55  A    between atoms: _127  and  _129
REMARK   56  A    between atoms: _129  and  _130
REMARK   57  A    between atoms: _129  and  _132
REMARK   58  A    between atoms: _135  and  _137
REMARK   59  A    between atoms: _137  and  _138
REMARK   60  A    between atoms: _137  and  _140
REMARK   61  A    between atoms: _140  and  _141
REMARK   62  A    between atoms: _143  and  _145
REMARK   63  A    between atoms: _145  and  _146
REMARK   64  A    between atoms: _148  and  _150
REMARK   65  A    between atoms: _150  and  _151
REMARK   66  A    between atoms: _150  and  _153
REMARK   67  A    between atoms: _153  and  _154
REMARK   68  A    between atoms: _157  and  _159
REMARK   69  A    between atoms: _159  and  _160
REMARK   70  A    between atoms: _163  and  _165
REMARK   71  A    between atoms: _165  and  _166
REMARK   72  A    between atoms: _165  and  _168
REMARK   73  A    between atoms: _168  and  _169
REMARK   74  A    between atoms: _175  and  _177
REMARK   75  A    between atoms: _177  and  _178
REMARK   76  A    between atoms: _177  and  _180
REMARK   77  A    between atoms: _180  and  _181
REMARK   78  A    between atoms: _184  and  _186
REMARK   79  A    between atoms: _186  and  _187
REMARK   80  A    between atoms: _186  and  _189
REMARK   81  A    between atoms: _189  and  _190
REMARK   82  A    between atoms: _195  and  _197
REMARK   83  A    between atoms: _197  and  _198
REMARK   84  A    between atoms: _200  and  _202
REMARK   85  A    between atoms: _202  and  _203
REMARK   86  A    between atoms: _202  and  _205
REMARK   87  A    between atoms: _205  and  _206
REMARK   88  A    between atoms: _209  and  _211
REMARK   89  A    between atoms: _211  and  _212
REMARK   90  A    between atoms: _211  and  _214
REMARK   91  A    between atoms: _214  and  _215
REMARK   92  A    between atoms: _218  and  _220
REMARK   93  A    between atoms: _220  and  _221
REMARK   94  A    between atoms: _224  and  _226
REMARK   95  A    between atoms: _226  and  _227
REMARK   96  A    between atoms: _226  and  _229
REMARK   97  A    between atoms: _232  and  _234
REMARK   98  A    between atoms: _234  and  _235
REMARK   99  A    between atoms: _234  and  _237
REMARK  100  A    between atoms: _237  and  _238
REMARK  101  A    between atoms: _238  and  _239
REMARK  102  A    between atoms: _242  and  _244
REMARK  103  A    between atoms: _244  and  _245
REMARK  104  A    between atoms: _244  and  _247
REMARK  105  A    between atoms: _247  and  _248
REMARK  106  A    between atoms: _248  and  _249
REMARK  107  A    between atoms: _251  and  _253
REMARK  108  A    between atoms: _253  and  _254
REMARK  109  A    between atoms: _253  and  _256
REMARK  110  A    between atoms: _256  and  _257
REMARK  111  A    between atoms: _257  and  _258
REMARK  112  A    between atoms: _261  and  _263
REMARK  113  A    between atoms: _263  and  _264
REMARK  114  A    between atoms: _267  and  _269
REMARK  115  A    between atoms: _269  and  _270
REMARK  116  A    between atoms: _269  and  _272
REMARK  117  A    between atoms: _272  and  _273
REMARK  118  A    between atoms: _273  and  _274
REMARK  119  A    between atoms: _274  and  _275
REMARK  120  A    between atoms: _284  and  _286
REMARK  121  A    between atoms: _286  and  _287
REMARK  122  A    between atoms: _290  and  _292
REMARK  123  A    between atoms: _292  and  _293
REMARK  124  A    between atoms: _292  and  _295
REMARK  125  A    between atoms: _295  and  _296
REMARK  126  A    between atoms: _299  and  _301
REMARK  127  A    between atoms: _301  and  _302
REMARK  128  A    between atoms: _301  and  _304
REMARK  129  A    between atoms: _304  and  _305
REMARK  130  A    between atoms: _307  and  _309
REMARK  131  A    between atoms: _309  and  _310
REMARK  132  A    between atoms: _309  and  _312
REMARK  133  A    between atoms: _312  and  _313
REMARK  134  A    between atoms: _316  and  _318
REMARK  135  A    between atoms: _318  and  _319
REMARK  136  A    between atoms: _318  and  _321
REMARK  137  A    between atoms: _324  and  _326
REMARK  138  A    between atoms: _326  and  _327
REMARK  139  A    between atoms: _330  and  _332
REMARK  140  A    between atoms: _332  and  _333
REMARK  141  A    between atoms: _332  and  _335
REMARK  142  A    between atoms: _335  and  _336
REMARK  143  A    between atoms: _339  and  _341
REMARK  144  A    between atoms: _341  and  _342
REMARK  145  A    between atoms: _341  and  _344
REMARK  146  A    between atoms: _344  and  _345
REMARK  147  A    between atoms: _345  and  _346
REMARK  148  A    between atoms: _351  and  _353
REMARK  149  A    between atoms: _353  and  _354
REMARK  150  A    between atoms: _353  and  _356
REMARK  151  A    between atoms: _356  and  _357
REMARK  152  A    between atoms: _359  and  _361
REMARK  153  A    between atoms: _361  and  _362
REMARK  154  A    between atoms: _361  and  _364
REMARK  155  A    between atoms: _364  and  _365
REMARK  156  A    between atoms: _370  and  _372
REMARK  157  A    between atoms: _372  and  _373
REMARK  158  A    between atoms: _372  and  _375
REMARK  159  A    between atoms: _375  and  _376
REMARK  160  A    between atoms: _378  and  _380
REMARK  161  A    between atoms: _380  and  _381
REMARK  162  A    between atoms: _380  and  _383
REMARK  163  A    between atoms: _383  and  _384
REMARK  164  A    between atoms: _390  and  _392
REMARK  165  A    between atoms: _392  and  _393
REMARK  166  A    between atoms: _392  and  _395
REMARK  167  A    between atoms: _395  and  _396
REMARK  168  A    between atoms: _399  and  _401
REMARK  169  A    between atoms: _401  and  _402
REMARK  170  A    between atoms: _401  and  _404
REMARK  171  A    between atoms: _404  and  _405
REMARK  172  A    between atoms: _408  and  _410
REMARK  173  A    between atoms: _410  and  _411
REMARK  174  A    between atoms: _414  and  _416
REMARK  175  A    between atoms: _416  and  _417
REMARK  176  A    between atoms: _416  and  _419
REMARK  177  A    between atoms: _419  and  _420
REMARK  178  A    between atoms: _423  and  _425
REMARK  179  A    between atoms: _425  and  _426
REMARK  180  A    between atoms: _425  and  _428
REMARK  181  A    between atoms: _431  and  _433
REMARK  182  A    between atoms: _433  and  _434
REMARK  183  A    between atoms: _437  and  _439
REMARK  184  A    between atoms: _439  and  _440
REMARK  185  A    between atoms: _439  and  _442
REMARK  186  A    between atoms: _442  and  _443
REMARK  187  A    between atoms: _449  and  _451
REMARK  188  A    between atoms: _451  and  _452
REMARK  189  A    between atoms: _451  and  _454
REMARK  190  A    between atoms: _454  and  _455
REMARK  191  A    between atoms: _460  and  _461
REMARK  192  A    between atoms: _463  and  _465
REMARK  193  A    between atoms: _465  and  _466
REMARK  194  A    between atoms: _465  and  _468
REMARK  195  A    between atoms: _468  and  _469
REMARK  196  A    between atoms: _473  and  _474
REMARK                            x       y       z     vdW  Elec       q    Type
REMARK                         _______ _______ _______ _____ _____    ______ ____
ROOT
ATOM      1  O   HOH     1      51.374  71.794  11.008  0.00  0.00    +0.000 OA
ENDROOT
TORSDOF 0
REMARK  Name = ../refined-set-2016/1y6q/1y6q_pocket.pdb
REMARK  196 active torsions:
REMARK  status: ('A' for Active; 'I' for Inactive)
REMARK    1  A    between atoms: _1  and  _3
REMARK    2  A    between atoms: _3  and  _4
REMARK    3  A    between atoms: _6  and  _8
REMARK    4  A    between atoms: _8  and  _9
REMARK    5  A    between atoms: _12  and  _14
REMARK    6  A    between atoms: _14  and  _15
REMARK    7  A    between atoms: _14  and  _17
REMARK    8  A    between atoms: _17  and  _18
REMARK    9  A    between atoms: _18  and  _19
REMARK   10  A    between atoms: _21  and  _23
REMARK   11  A    between atoms: _23  and  _24
REMARK   12  A    between atoms: _23  and  _26
REMARK   13  A    between atoms: _26  and  _27
REMARK   14  A    between atoms: _27  and  _28
REMARK   15  A    between atoms: _31  and  _33
REMARK   16  A    between atoms: _33  and  _34
REMARK   17  A    between atoms: _33  and  _36
REMARK   18  A    between atoms: _36  and  _37
REMARK   19  A    between atoms: _39  and  _41
REMARK   20  A    between atoms: _41  and  _42
REMARK   21  A    between atoms: _44  and  _46
REMARK   22  A    between atoms: _46  and  _47
REMARK   23  A    between atoms: _46  and  _49
REMARK   24  A    between atoms: _49  and  _50
REMARK   25  A    between atoms: _53  and  _55
REMARK   26  A    between atoms: _55  and  _56
REMARK   27  A    between atoms: _58  and  _60
REMARK   28  A    between atoms: _60  and  _61
REMARK   29  A    between atoms: _60  and  _63
REMARK   30  A    between atoms: _63  and  _64
REMARK   31  A    between atoms: _69  and  _71
REMARK   32  A    between atoms: _71  and  _72
REMARK   33  A    between atoms: _71  and  _74
REMARK   34  A    between atoms: _74  and  _75
REMARK   35  A    between atoms: _78  and  _80
REMARK   36  A    between atoms: _80  and  _81
REMARK   37  A    between atoms: _83  and  _85
REMARK   38  A    between atoms: _85  and  _86
REMARK   39  A    between atoms: _85  and  _88
REMARK   40  A    between atoms: _88  and  _89
REMARK   41  A    between atoms: _91  and  _93
REMARK   42  A    between atoms: _93  and  _94
REMARK   43  A    between atoms: _97  and  _99
REMARK   44  A    between atoms: _99  and  _100
REMARK   45  A    between atoms: _102  and  _104
REMARK   46  A    between atoms: _104  and  _105
REMARK   47  A    between atoms: _107  and  _109
REMARK   48  A    between atoms: _109  and  _110
REMARK   49  A    between atoms: _109  and  _112
REMARK   50  A    between atoms: _112  and  _113
REMARK   51  A    between atoms: _116  and  _118
REMARK   52  A    between atoms: _118  and  _119
REMARK   53  A    between atoms: _118  and  _121
REMARK   54  A    between atoms: _121  and  _122
REMARK   55  A    between atoms: _127  and  _129
REMARK   56  A    between atoms: _129  and  _130
REMARK   57  A    between atoms: _129  and  _132
REMARK   58  A    between atoms: _135  and  _137
REMARK   59  A    between atoms: _137  and  _138
REMARK   60  A    between atoms: _137  and  _140
REMARK   61  A    between atoms: _140  and  _141
REMARK   62  A    between atoms: _143  and  _145
REMARK   63  A    between atoms: _145  and  _146
REMARK   64  A    between atoms: _148  and  _150
REMARK   65  A    between atoms: _150  and  _151
REMARK   66  A    between atoms: _150  and  _153
REMARK   67  A    between atoms: _153  and  _154
REMARK   68  A    between atoms: _157  and  _159
REMARK   69  A    between atoms: _159  and  _160
REMARK   70  A    between atoms: _163  and  _165
REMARK   71  A    between atoms: _165  and  _166
REMARK   72  A    between atoms: _165  and  _168
REMARK   73  A    between atoms: _168  and  _169
REMARK   74  A    between atoms: _175  and  _177
REMARK   75  A    between atoms: _177  and  _178
REMARK   76  A    between atoms: _177  and  _180
REMARK   77  A    between atoms: _180  and  _181
REMARK   78  A    between atoms: _184  and  _186
REMARK   79  A    between atoms: _186  and  _187
REMARK   80  A    between atoms: _186  and  _189
REMARK   81  A    between atoms: _189  and  _190
REMARK   82  A    between atoms: _195  and  _197
REMARK   83  A    between atoms: _197  and  _198
REMARK   84  A    between atoms: _200  and  _202
REMARK   85  A    between atoms: _202  and  _203
REMARK   86  A    between atoms: _202  and  _205
REMARK   87  A    between atoms: _205  and  _206
REMARK   88  A    between atoms: _209  and  _211
REMARK   89  A    between atoms: _211  and  _212
REMARK   90  A    between atoms: _211  and  _214
REMARK   91  A    between atoms: _214  and  _215
REMARK   92  A    between atoms: _218  and  _220
REMARK   93  A    between atoms: _220  and  _221
REMARK   94  A    between atoms: _224  and  _226
REMARK   95  A    between atoms: _226  and  _227
REMARK   96  A    between atoms: _226  and  _229
REMARK   97  A    between atoms: _232  and  _234
REMARK   98  A    between atoms: _234  and  _235
REMARK   99  A    between atoms: _234  and  _237
REMARK  100  A    between atoms: _237  and  _238
REMARK  101  A    between atoms: _238  and  _239
REMARK  102  A    between atoms: _242  and  _244
REMARK  103  A    between atoms: _244  and  _245
REMARK  104  A    between atoms: _244  and  _247
REMARK  105  A    between atoms: _247  and  _248
REMARK  106  A    between atoms: _248  and  _249
REMARK  107  A    between atoms: _251  and  _253
REMARK  108  A    between atoms: _253  and  _254
REMARK  109  A    between atoms: _253  and  _256
REMARK  110  A    between atoms: _256  and  _257
REMARK  111  A    between atoms: _257  and  _258
REMARK  112  A    between atoms: _261  and  _263
REMARK  113  A    between atoms: _263  and  _264
REMARK  114  A    between atoms: _267  and  _269
REMARK  115  A    between atoms: _269  and  _270
REMARK  116  A    between atoms: _269  and  _272
REMARK  117  A    between atoms: _272  and  _273
REMARK  118  A    between atoms: _273  and  _274
REMARK  119  A    between atoms: _274  and  _275
REMARK  120  A    between atoms: _284  and  _286
REMARK  121  A    between atoms: _286  and  _287
REMARK  122  A    between atoms: _290  and  _292
REMARK  123  A    between atoms: _292  and  _293
REMARK  124  A    between atoms: _292  and  _295
REMARK  125  A    between atoms: _295  and  _296
REMARK  126  A    between atoms: _299  and  _301
REMARK  127  A    between atoms: _301  and  _302
REMARK  128  A    between atoms: _301  and  _304
REMARK  129  A    between atoms: _304  and  _305
REMARK  130  A    between atoms: _307  and  _309
REMARK  131  A    between atoms: _309  and  _310
REMARK  132  A    between atoms: _309  and  _312
REMARK  133  A    between atoms: _312  and  _313
REMARK  134  A    between atoms: _316  and  _318
REMARK  135  A    between atoms: _318  and  _319
REMARK  136  A    between atoms: _318  and  _321
REMARK  137  A    between atoms: _324  and  _326
REMARK  138  A    between atoms: _326  and  _327
REMARK  139  A    between atoms: _330  and  _332
REMARK  140  A    between atoms: _332  and  _333
REMARK  141  A    between atoms: _332  and  _335
REMARK  142  A    between atoms: _335  and  _336
REMARK  143  A    between atoms: _339  and  _341
REMARK  144  A    between atoms: _341  and  _342
REMARK  145  A    between atoms: _341  and  _344
REMARK  146  A    between atoms: _344  and  _345
REMARK  147  A    between atoms: _345  and  _346
REMARK  148  A    between atoms: _351  and  _353
REMARK  149  A    between atoms: _353  and  _354
REMARK  150  A    between atoms: _353  and  _356
REMARK  151  A    between atoms: _356  and  _357
REMARK  152  A    between atoms: _359  and  _361
REMARK  153  A    between atoms: _361  and  _362
REMARK  154  A    between atoms: _361  and  _364
REMARK  155  A    between atoms: _364  and  _365
REMARK  156  A    between atoms: _370  and  _372
REMARK  157  A    between atoms: _372  and  _373
REMARK  158  A    between atoms: _372  and  _375
REMARK  159  A    between atoms: _375  and  _376
REMARK  160  A    between atoms: _378  and  _380
REMARK  161  A    between atoms: _380  and  _381
REMARK  162  A    between atoms: _380  and  _383
REMARK  163  A    between atoms: _383  and  _384
REMARK  164  A    between atoms: _390  and  _392
REMARK  165  A    between atoms: _392  and  _393
REMARK  166  A    between atoms: _392  and  _395
REMARK  167  A    between atoms: _395  and  _396
REMARK  168  A    between atoms: _399  and  _401
REMARK  169  A    between atoms: _401  and  _402
REMARK  170  A    between atoms: _401  and  _404
REMARK  171  A    between atoms: _404  and  _405
REMARK  172  A    between atoms: _408  and  _410
REMARK  173  A    between atoms: _410  and  _411
REMARK  174  A    between atoms: _414  and  _416
REMARK  175  A    between atoms: _416  and  _417
REMARK  176  A    between atoms: _416  and  _419
REMARK  177  A    between atoms: _419  and  _420
REMARK  178  A    between atoms: _423  and  _425
REMARK  179  A    between atoms: _425  and  _426
REMARK  180  A    between atoms: _425  and  _428
REMARK  181  A    between atoms: _431  and  _433
REMARK  182  A    between atoms: _433  and  _434
REMARK  183  A    between atoms: _437  and  _439
REMARK  184  A    between atoms: _439  and  _440
REMARK  185  A    between atoms: _439  and  _442
REMARK  186  A    between atoms: _442  and  _443
REMARK  187  A    between atoms: _449  and  _451
REMARK  188  A    between atoms: _451  and  _452
REMARK  189  A    between atoms: _451  and  _454
REMARK  190  A    between atoms: _454  and  _455
REMARK  191  A    between atoms: _460  and  _461
REMARK  192  A    between atoms: _463  and  _465
REMARK  193  A    between atoms: _465  and  _466
REMARK  194  A    between atoms: _465  and  _468
REMARK  195  A    between atoms: _468  and  _469
REMARK  196  A    between atoms: _473  and  _474
REMARK                            x       y       z     vdW  Elec       q    Type
REMARK                         _______ _______ _______ _____ _____    ______ ____
ROOT
ATOM      1  O   HOH     1      63.139  65.509  25.538  0.00  0.00    +0.000 OA
ENDROOT
TORSDOF 0
REMARK  Name = ../refined-set-2016/1y6q/1y6q_pocket.pdb
REMARK  196 active torsions:
REMARK  status: ('A' for Active; 'I' for Inactive)
REMARK    1  A    between atoms: _1  and  _3
REMARK    2  A    between atoms: _3  and  _4
REMARK    3  A    between atoms: _6  and  _8
REMARK    4  A    between atoms: _8  and  _9
REMARK    5  A    between atoms: _12  and  _14
REMARK    6  A    between atoms: _14  and  _15
REMARK    7  A    between atoms: _14  and  _17
REMARK    8  A    between atoms: _17  and  _18
REMARK    9  A    between atoms: _18  and  _19
REMARK   10  A    between atoms: _21  and  _23
REMARK   11  A    between atoms: _23  and  _24
REMARK   12  A    between atoms: _23  and  _26
REMARK   13  A    between atoms: _26  and  _27
REMARK   14  A    between atoms: _27  and  _28
REMARK   15  A    between atoms: _31  and  _33
REMARK   16  A    between atoms: _33  and  _34
REMARK   17  A    between atoms: _33  and  _36
REMARK   18  A    between atoms: _36  and  _37
REMARK   19  A    between atoms: _39  and  _41
REMARK   20  A    between atoms: _41  and  _42
REMARK   21  A    between atoms: _44  and  _46
REMARK   22  A    between atoms: _46  and  _47
REMARK   23  A    between atoms: _46  and  _49
REMARK   24  A    between atoms: _49  and  _50
REMARK   25  A    between atoms: _53  and  _55
REMARK   26  A    between atoms: _55  and  _56
REMARK   27  A    between atoms: _58  and  _60
REMARK   28  A    between atoms: _60  and  _61
REMARK   29  A    between atoms: _60  and  _63
REMARK   30  A    between atoms: _63  and  _64
REMARK   31  A    between atoms: _69  and  _71
REMARK   32  A    between atoms: _71  and  _72
REMARK   33  A    between atoms: _71  and  _74
REMARK   34  A    between atoms: _74  and  _75
REMARK   35  A    between atoms: _78  and  _80
REMARK   36  A    between atoms: _80  and  _81
REMARK   37  A    between atoms: _83  and  _85
REMARK   38  A    between atoms: _85  and  _86
REMARK   39  A    between atoms: _85  and  _88
REMARK   40  A    between atoms: _88  and  _89
REMARK   41  A    between atoms: _91  and  _93
REMARK   42  A    between atoms: _93  and  _94
REMARK   43  A    between atoms: _97  and  _99
REMARK   44  A    between atoms: _99  and  _100
REMARK   45  A    between atoms: _102  and  _104
REMARK   46  A    between atoms: _104  and  _105
REMARK   47  A    between atoms: _107  and  _109
REMARK   48  A    between atoms: _109  and  _110
REMARK   49  A    between atoms: _109  and  _112
REMARK   50  A    between atoms: _112  and  _113
REMARK   51  A    between atoms: _116  and  _118
REMARK   52  A    between atoms: _118  and  _119
REMARK   53  A    between atoms: _118  and  _121
REMARK   54  A    between atoms: _121  and  _122
REMARK   55  A    between atoms: _127  and  _129
REMARK   56  A    between atoms: _129  and  _130
REMARK   57  A    between atoms: _129  and  _132
REMARK   58  A    between atoms: _135  and  _137
REMARK   59  A    between atoms: _137  and  _138
REMARK   60  A    between atoms: _137  and  _140
REMARK   61  A    between atoms: _140  and  _141
REMARK   62  A    between atoms: _143  and  _145
REMARK   63  A    between atoms: _145  and  _146
REMARK   64  A    between atoms: _148  and  _150
REMARK   65  A    between atoms: _150  and  _151
REMARK   66  A    between atoms: _150  and  _153
REMARK   67  A    between atoms: _153  and  _154
REMARK   68  A    between atoms: _157  and  _159
REMARK   69  A    between atoms: _159  and  _160
REMARK   70  A    between atoms: _163  and  _165
REMARK   71  A    between atoms: _165  and  _166
REMARK   72  A    between atoms: _165  and  _168
REMARK   73  A    between atoms: _168  and  _169
REMARK   74  A    between atoms: _175  and  _177
REMARK   75  A    between atoms: _177  and  _178
REMARK   76  A    between atoms: _177  and  _180
REMARK   77  A    between atoms: _180  and  _181
REMARK   78  A    between atoms: _184  and  _186
REMARK   79  A    between atoms: _186  and  _187
REMARK   80  A    between atoms: _186  and  _189
REMARK   81  A    between atoms: _189  and  _190
REMARK   82  A    between atoms: _195  and  _197
REMARK   83  A    between atoms: _197  and  _198
REMARK   84  A    between atoms: _200  and  _202
REMARK   85  A    between atoms: _202  and  _203
REMARK   86  A    between atoms: _202  and  _205
REMARK   87  A    between atoms: _205  and  _206
REMARK   88  A    between atoms: _209  and  _211
REMARK   89  A    between atoms: _211  and  _212
REMARK   90  A    between atoms: _211  and  _214
REMARK   91  A    between atoms: _214  and  _215
REMARK   92  A    between atoms: _218  and  _220
REMARK   93  A    between atoms: _220  and  _221
REMARK   94  A    between atoms: _224  and  _226
REMARK   95  A    between atoms: _226  and  _227
REMARK   96  A    between atoms: _226  and  _229
REMARK   97  A    between atoms: _232  and  _234
REMARK   98  A    between atoms: _234  and  _235
REMARK   99  A    between atoms: _234  and  _237
REMARK  100  A    between atoms: _237  and  _238
REMARK  101  A    between atoms: _238  and  _239
REMARK  102  A    between atoms: _242  and  _244
REMARK  103  A    between atoms: _244  and  _245
REMARK  104  A    between atoms: _244  and  _247
REMARK  105  A    between atoms: _247  and  _248
REMARK  106  A    between atoms: _248  and  _249
REMARK  107  A    between atoms: _251  and  _253
REMARK  108  A    between atoms: _253  and  _254
REMARK  109  A    between atoms: _253  and  _256
REMARK  110  A    between atoms: _256  and  _257
REMARK  111  A    between atoms: _257  and  _258
REMARK  112  A    between atoms: _261  and  _263
REMARK  113  A    between atoms: _263  and  _264
REMARK  114  A    between atoms: _267  and  _269
REMARK  115  A    between atoms: _269  and  _270
REMARK  116  A    between atoms: _269  and  _272
REMARK  117  A    between atoms: _272  and  _273
REMARK  118  A    between atoms: _273  and  _274
REMARK  119  A    between atoms: _274  and  _275
REMARK  120  A    between atoms: _284  and  _286
REMARK  121  A    between atoms: _286  and  _287
REMARK  122  A    between atoms: _290  and  _292
REMARK  123  A    between atoms: _292  and  _293
REMARK  124  A    between atoms: _292  and  _295
REMARK  125  A    between atoms: _295  and  _296
REMARK  126  A    between atoms: _299  and  _301
REMARK  127  A    between atoms: _301  and  _302
REMARK  128  A    between atoms: _301  and  _304
REMARK  129  A    between atoms: _304  and  _305
REMARK  130  A    between atoms: _307  and  _309
REMARK  131  A    between atoms: _309  and  _310
REMARK  132  A    between atoms: _309  and  _312
REMARK  133  A    between atoms: _312  and  _313
REMARK  134  A    between atoms: _316  and  _318
REMARK  135  A    between atoms: _318  and  _319
REMARK  136  A    between atoms: _318  and  _321
REMARK  137  A    between atoms: _324  and  _326
REMARK  138  A    between atoms: _326  and  _327
REMARK  139  A    between atoms: _330  and  _332
REMARK  140  A    between atoms: _332  and  _333
REMARK  141  A    between atoms: _332  and  _335
REMARK  142  A    between atoms: _335  and  _336
REMARK  143  A    between atoms: _339  and  _341
REMARK  144  A    between atoms: _341  and  _342
REMARK  145  A    between atoms: _341  and  _344
REMARK  146  A    between atoms: _344  and  _345
REMARK  147  A    between atoms: _345  and  _346
REMARK  148  A    between atoms: _351  and  _353
REMARK  149  A    between atoms: _353  and  _354
REMARK  150  A    between atoms: _353  and  _356
REMARK  151  A    between atoms: _356  and  _357
REMARK  152  A    between atoms: _359  and  _361
REMARK  153  A    between atoms: _361  and  _362
REMARK  154  A    between atoms: _361  and  _364
REMARK  155  A    between atoms: _364  and  _365
REMARK  156  A    between atoms: _370  and  _372
REMARK  157  A    between atoms: _372  and  _373
REMARK  158  A    between atoms: _372  and  _375
REMARK  159  A    between atoms: _375  and  _376
REMARK  160  A    between atoms: _378  and  _380
REMARK  161  A    between atoms: _380  and  _381
REMARK  162  A    between atoms: _380  and  _383
REMARK  163  A    between atoms: _383  and  _384
REMARK  164  A    between atoms: _390  and  _392
REMARK  165  A    between atoms: _392  and  _393
REMARK  166  A    between atoms: _392  and  _395
REMARK  167  A    between atoms: _395  and  _396
REMARK  168  A    between atoms: _399  and  _401
REMARK  169  A    between atoms: _401  and  _402
REMARK  170  A    between atoms: _401  and  _404
REMARK  171  A    between atoms: _404  and  _405
REMARK  172  A    between atoms: _408  and  _410
REMARK  173  A    between atoms: _410  and  _411
REMARK  174  A    between atoms: _414  and  _416
REMARK  175  A    between atoms: _416  and  _417
REMARK  176  A    between atoms: _416  and  _419
REMARK  177  A    between atoms: _419  and  _420
REMARK  178  A    between atoms: _423  and  _425
REMARK  179  A    between atoms: _425  and  _426
REMARK  180  A    between atoms: _425  and  _428
REMARK  181  A    between atoms: _431  and  _433
REMARK  182  A    between atoms: _433  and  _434
REMARK  183  A    between atoms: _437  and  _439
REMARK  184  A    between atoms: _439  and  _440
REMARK  185  A    between atoms: _439  and  _442
REMARK  186  A    between atoms: _442  and  _443
REMARK  187  A    between atoms: _449  and  _451
REMARK  188  A    between atoms: _451  and  _452
REMARK  189  A    between atoms: _451  and  _454
REMARK  190  A    between atoms: _454  and  _455
REMARK  191  A    between atoms: _460  and  _461
REMARK  192  A    between atoms: _463  and  _465
REMARK  193  A    between atoms: _465  and  _466
REMARK  194  A    between atoms: _465  and  _468
REMARK  195  A    between atoms: _468  and  _469
REMARK  196  A    between atoms: _473  and  _474
REMARK                            x       y       z     vdW  Elec       q    Type
REMARK                         _______ _______ _______ _____ _____    ______ ____
ROOT
ATOM      1  O   HOH     1      46.337  73.623  22.955  0.00  0.00    +0.000 OA
ENDROOT
TORSDOF 0
REMARK  Name = ../refined-set-2016/1y6q/1y6q_pocket.pdb
REMARK  196 active torsions:
REMARK  status: ('A' for Active; 'I' for Inactive)
REMARK    1  A    between atoms: _1  and  _3
REMARK    2  A    between atoms: _3  and  _4
REMARK    3  A    between atoms: _6  and  _8
REMARK    4  A    between atoms: _8  and  _9
REMARK    5  A    between atoms: _12  and  _14
REMARK    6  A    between atoms: _14  and  _15
REMARK    7  A    between atoms: _14  and  _17
REMARK    8  A    between atoms: _17  and  _18
REMARK    9  A    between atoms: _18  and  _19
REMARK   10  A    between atoms: _21  and  _23
REMARK   11  A    between atoms: _23  and  _24
REMARK   12  A    between atoms: _23  and  _26
REMARK   13  A    between atoms: _26  and  _27
REMARK   14  A    between atoms: _27  and  _28
REMARK   15  A    between atoms: _31  and  _33
REMARK   16  A    between atoms: _33  and  _34
REMARK   17  A    between atoms: _33  and  _36
REMARK   18  A    between atoms: _36  and  _37
REMARK   19  A    between atoms: _39  and  _41
REMARK   20  A    between atoms: _41  and  _42
REMARK   21  A    between atoms: _44  and  _46
REMARK   22  A    between atoms: _46  and  _47
REMARK   23  A    between atoms: _46  and  _49
REMARK   24  A    between atoms: _49  and  _50
REMARK   25  A    between atoms: _53  and  _55
REMARK   26  A    between atoms: _55  and  _56
REMARK   27  A    between atoms: _58  and  _60
REMARK   28  A    between atoms: _60  and  _61
REMARK   29  A    between atoms: _60  and  _63
REMARK   30  A    between atoms: _63  and  _64
REMARK   31  A    between atoms: _69  and  _71
REMARK   32  A    between atoms: _71  and  _72
REMARK   33  A    between atoms: _71  and  _74
REMARK   34  A    between atoms: _74  and  _75
REMARK   35  A    between atoms: _78  and  _80
REMARK   36  A    between atoms: _80  and  _81
REMARK   37  A    between atoms: _83  and  _85
REMARK   38  A    between atoms: _85  and  _86
REMARK   39  A    between atoms: _85  and  _88
REMARK   40  A    between atoms: _88  and  _89
REMARK   41  A    between atoms: _91  and  _93
REMARK   42  A    between atoms: _93  and  _94
REMARK   43  A    between atoms: _97  and  _99
REMARK   44  A    between atoms: _99  and  _100
REMARK   45  A    between atoms: _102  and  _104
REMARK   46  A    between atoms: _104  and  _105
REMARK   47  A    between atoms: _107  and  _109
REMARK   48  A    between atoms: _109  and  _110
REMARK   49  A    between atoms: _109  and  _112
REMARK   50  A    between atoms: _112  and  _113
REMARK   51  A    between atoms: _116  and  _118
REMARK   52  A    between atoms: _118  and  _119
REMARK   53  A    between atoms: _118  and  _121
REMARK   54  A    between atoms: _121  and  _122
REMARK   55  A    between atoms: _127  and  _129
REMARK   56  A    between atoms: _129  and  _130
REMARK   57  A    between atoms: _129  and  _132
REMARK   58  A    between atoms: _135  and  _137
REMARK   59  A    between atoms: _137  and  _138
REMARK   60  A    between atoms: _137  and  _140
REMARK   61  A    between atoms: _140  and  _141
REMARK   62  A    between atoms: _143  and  _145
REMARK   63  A    between atoms: _145  and  _146
REMARK   64  A    between atoms: _148  and  _150
REMARK   65  A    between atoms: _150  and  _151
REMARK   66  A    between atoms: _150  and  _153
REMARK   67  A    between atoms: _153  and  _154
REMARK   68  A    between atoms: _157  and  _159
REMARK   69  A    between atoms: _159  and  _160
REMARK   70  A    between atoms: _163  and  _165
REMARK   71  A    between atoms: _165  and  _166
REMARK   72  A    between atoms: _165  and  _168
REMARK   73  A    between atoms: _168  and  _169
REMARK   74  A    between atoms: _175  and  _177
REMARK   75  A    between atoms: _177  and  _178
REMARK   76  A    between atoms: _177  and  _180
REMARK   77  A    between atoms: _180  and  _181
REMARK   78  A    between atoms: _184  and  _186
REMARK   79  A    between atoms: _186  and  _187
REMARK   80  A    between atoms: _186  and  _189
REMARK   81  A    between atoms: _189  and  _190
REMARK   82  A    between atoms: _195  and  _197
REMARK   83  A    between atoms: _197  and  _198
REMARK   84  A    between atoms: _200  and  _202
REMARK   85  A    between atoms: _202  and  _203
REMARK   86  A    between atoms: _202  and  _205
REMARK   87  A    between atoms: _205  and  _206
REMARK   88  A    between atoms: _209  and  _211
REMARK   89  A    between atoms: _211  and  _212
REMARK   90  A    between atoms: _211  and  _214
REMARK   91  A    between atoms: _214  and  _215
REMARK   92  A    between atoms: _218  and  _220
REMARK   93  A    between atoms: _220  and  _221
REMARK   94  A    between atoms: _224  and  _226
REMARK   95  A    between atoms: _226  and  _227
REMARK   96  A    between atoms: _226  and  _229
REMARK   97  A    between atoms: _232  and  _234
REMARK   98  A    between atoms: _234  and  _235
REMARK   99  A    between atoms: _234  and  _237
REMARK  100  A    between atoms: _237  and  _238
REMARK  101  A    between atoms: _238  and  _239
REMARK  102  A    between atoms: _242  and  _244
REMARK  103  A    between atoms: _244  and  _245
REMARK  104  A    between atoms: _244  and  _247
REMARK  105  A    between atoms: _247  and  _248
REMARK  106  A    between atoms: _248  and  _249
REMARK  107  A    between atoms: _251  and  _253
REMARK  108  A    between atoms: _253  and  _254
REMARK  109  A    between atoms: _253  and  _256
REMARK  110  A    between atoms: _256  and  _257
REMARK  111  A    between atoms: _257  and  _258
REMARK  112  A    between atoms: _261  and  _263
REMARK  113  A    between atoms: _263  and  _264
REMARK  114  A    between atoms: _267  and  _269
REMARK  115  A    between atoms: _269  and  _270
REMARK  116  A    between atoms: _269  and  _272
REMARK  117  A    between atoms: _272  and  _273
REMARK  118  A    between atoms: _273  and  _274
REMARK  119  A    between atoms: _274  and  _275
REMARK  120  A    between atoms: _284  and  _286
REMARK  121  A    between atoms: _286  and  _287
REMARK  122  A    between atoms: _290  and  _292
REMARK  123  A    between atoms: _292  and  _293
REMARK  124  A    between atoms: _292  and  _295
REMARK  125  A    between atoms: _295  and  _296
REMARK  126  A    between atoms: _299  and  _301
REMARK  127  A    between atoms: _301  and  _302
REMARK  128  A    between atoms: _301  and  _304
REMARK  129  A    between atoms: _304  and  _305
REMARK  130  A    between atoms: _307  and  _309
REMARK  131  A    between atoms: _309  and  _310
REMARK  132  A    between atoms: _309  and  _312
REMARK  133  A    between atoms: _312  and  _313
REMARK  134  A    between atoms: _316  and  _318
REMARK  135  A    between atoms: _318  and  _319
REMARK  136  A    between atoms: _318  and  _321
REMARK  137  A    between atoms: _324  and  _326
REMARK  138  A    between atoms: _326  and  _327
REMARK  139  A    between atoms: _330  and  _332
REMARK  140  A    between atoms: _332  and  _333
REMARK  141  A    between atoms: _332  and  _335
REMARK  142  A    between atoms: _335  and  _336
REMARK  143  A    between atoms: _339  and  _341
REMARK  144  A    between atoms: _341  and  _342
REMARK  145  A    between atoms: _341  and  _344
REMARK  146  A    between atoms: _344  and  _345
REMARK  147  A    between atoms: _345  and  _346
REMARK  148  A    between atoms: _351  and  _353
REMARK  149  A    between atoms: _353  and  _354
REMARK  150  A    between atoms: _353  and  _356
REMARK  151  A    between atoms: _356  and  _357
REMARK  152  A    between atoms: _359  and  _361
REMARK  153  A    between atoms: _361  and  _362
REMARK  154  A    between atoms: _361  and  _364
REMARK  155  A    between atoms: _364  and  _365
REMARK  156  A    between atoms: _370  and  _372
REMARK  157  A    between atoms: _372  and  _373
REMARK  158  A    between atoms: _372  and  _375
REMARK  159  A    between atoms: _375  and  _376
REMARK  160  A    between atoms: _378  and  _380
REMARK  161  A    between atoms: _380  and  _381
REMARK  162  A    between atoms: _380  and  _383
REMARK  163  A    between atoms: _383  and  _384
REMARK  164  A    between atoms: _390  and  _392
REMARK  165  A    between atoms: _392  and  _393
REMARK  166  A    between atoms: _392  and  _395
REMARK  167  A    between atoms: _395  and  _396
REMARK  168  A    between atoms: _399  and  _401
REMARK  169  A    between atoms: _401  and  _402
REMARK  170  A    between atoms: _401  and  _404
REMARK  171  A    between atoms: _404  and  _405
REMARK  172  A    between atoms: _408  and  _410
REMARK  173  A    between atoms: _410  and  _411
REMARK  174  A    between atoms: _414  and  _416
REMARK  175  A    between atoms: _416  and  _417
REMARK  176  A    between atoms: _416  and  _419
REMARK  177  A    between atoms: _419  and  _420
REMARK  178  A    between atoms: _423  and  _425
REMARK  179  A    between atoms: _425  and  _426
REMARK  180  A    between atoms: _425  and  _428
REMARK  181  A    between atoms: _431  and  _433
REMARK  182  A    between atoms: _433  and  _434
REMARK  183  A    between atoms: _437  and  _439
REMARK  184  A    between atoms: _439  and  _440
REMARK  185  A    between atoms: _439  and  _442
REMARK  186  A    between atoms: _442  and  _443
REMARK  187  A    between atoms: _449  and  _451
REMARK  188  A    between atoms: _451  and  _452
REMARK  189  A    between atoms: _451  and  _454
REMARK  190  A    between atoms: _454  and  _455
REMARK  191  A    between atoms: _460  and  _461
REMARK  192  A    between atoms: _463  and  _465
REMARK  193  A    between atoms: _465  and  _466
REMARK  194  A    between atoms: _465  and  _468
REMARK  195  A    between atoms: _468  and  _469
REMARK  196  A    between atoms: _473  and  _474
REMARK                            x       y       z     vdW  Elec       q    Type
REMARK                         _______ _______ _______ _____ _____    ______ ____
ROOT
ATOM      1  O   HOH     1      59.464  76.520  22.936  0.00  0.00    +0.000 OA
ENDROOT
TORSDOF 0
REMARK  Name = ../refined-set-2016/1y6q/1y6q_pocket.pdb
REMARK  196 active torsions:
REMARK  status: ('A' for Active; 'I' for Inactive)
REMARK    1  A    between atoms: _1  and  _3
REMARK    2  A    between atoms: _3  and  _4
REMARK    3  A    between atoms: _6  and  _8
REMARK    4  A    between atoms: _8  and  _9
REMARK    5  A    between atoms: _12  and  _14
REMARK    6  A    between atoms: _14  and  _15
REMARK    7  A    between atoms: _14  and  _17
REMARK    8  A    between atoms: _17  and  _18
REMARK    9  A    between atoms: _18  and  _19
REMARK   10  A    between atoms: _21  and  _23
REMARK   11  A    between atoms: _23  and  _24
REMARK   12  A    between atoms: _23  and  _26
REMARK   13  A    between atoms: _26  and  _27
REMARK   14  A    between atoms: _27  and  _28
REMARK   15  A    between atoms: _31  and  _33
REMARK   16  A    between atoms: _33  and  _34
REMARK   17  A    between atoms: _33  and  _36
REMARK   18  A    between atoms: _36  and  _37
REMARK   19  A    between atoms: _39  and  _41
REMARK   20  A    between atoms: _41  and  _42
REMARK   21  A    between atoms: _44  and  _46
REMARK   22  A    between atoms: _46  and  _47
REMARK   23  A    between atoms: _46  and  _49
REMARK   24  A    between atoms: _49  and  _50
REMARK   25  A    between atoms: _53  and  _55
REMARK   26  A    between atoms: _55  and  _56
REMARK   27  A    between atoms: _58  and  _60
REMARK   28  A    between atoms: _60  and  _61
REMARK   29  A    between atoms: _60  and  _63
REMARK   30  A    between atoms: _63  and  _64
REMARK   31  A    between atoms: _69  and  _71
REMARK   32  A    between atoms: _71  and  _72
REMARK   33  A    between atoms: _71  and  _74
REMARK   34  A    between atoms: _74  and  _75
REMARK   35  A    between atoms: _78  and  _80
REMARK   36  A    between atoms: _80  and  _81
REMARK   37  A    between atoms: _83  and  _85
REMARK   38  A    between atoms: _85  and  _86
REMARK   39  A    between atoms: _85  and  _88
REMARK   40  A    between atoms: _88  and  _89
REMARK   41  A    between atoms: _91  and  _93
REMARK   42  A    between atoms: _93  and  _94
REMARK   43  A    between atoms: _97  and  _99
REMARK   44  A    between atoms: _99  and  _100
REMARK   45  A    between atoms: _102  and  _104
REMARK   46  A    between atoms: _104  and  _105
REMARK   47  A    between atoms: _107  and  _109
REMARK   48  A    between atoms: _109  and  _110
REMARK   49  A    between atoms: _109  and  _112
REMARK   50  A    between atoms: _112  and  _113
REMARK   51  A    between atoms: _116  and  _118
REMARK   52  A    between atoms: _118  and  _119
REMARK   53  A    between atoms: _118  and  _121
REMARK   54  A    between atoms: _121  and  _122
REMARK   55  A    between atoms: _127  and  _129
REMARK   56  A    between atoms: _129  and  _130
REMARK   57  A    between atoms: _129  and  _132
REMARK   58  A    between atoms: _135  and  _137
REMARK   59  A    between atoms: _137  and  _138
REMARK   60  A    between atoms: _137  and  _140
REMARK   61  A    between atoms: _140  and  _141
REMARK   62  A    between atoms: _143  and  _145
REMARK   63  A    between atoms: _145  and  _146
REMARK   64  A    between atoms: _148  and  _150
REMARK   65  A    between atoms: _150  and  _151
REMARK   66  A    between atoms: _150  and  _153
REMARK   67  A    between atoms: _153  and  _154
REMARK   68  A    between atoms: _157  and  _159
REMARK   69  A    between atoms: _159  and  _160
REMARK   70  A    between atoms: _163  and  _165
REMARK   71  A    between atoms: _165  and  _166
REMARK   72  A    between atoms: _165  and  _168
REMARK   73  A    between atoms: _168  and  _169
REMARK   74  A    between atoms: _175  and  _177
REMARK   75  A    between atoms: _177  and  _178
REMARK   76  A    between atoms: _177  and  _180
REMARK   77  A    between atoms: _180  and  _181
REMARK   78  A    between atoms: _184  and  _186
REMARK   79  A    between atoms: _186  and  _187
REMARK   80  A    between atoms: _186  and  _189
REMARK   81  A    between atoms: _189  and  _190
REMARK   82  A    between atoms: _195  and  _197
REMARK   83  A    between atoms: _197  and  _198
REMARK   84  A    between atoms: _200  and  _202
REMARK   85  A    between atoms: _202  and  _203
REMARK   86  A    between atoms: _202  and  _205
REMARK   87  A    between atoms: _205  and  _206
REMARK   88  A    between atoms: _209  and  _211
REMARK   89  A    between atoms: _211  and  _212
REMARK   90  A    between atoms: _211  and  _214
REMARK   91  A    between atoms: _214  and  _215
REMARK   92  A    between atoms: _218  and  _220
REMARK   93  A    between atoms: _220  and  _221
REMARK   94  A    between atoms: _224  and  _226
REMARK   95  A    between atoms: _226  and  _227
REMARK   96  A    between atoms: _226  and  _229
REMARK   97  A    between atoms: _232  and  _234
REMARK   98  A    between atoms: _234  and  _235
REMARK   99  A    between atoms: _234  and  _237
REMARK  100  A    between atoms: _237  and  _238
REMARK  101  A    between atoms: _238  and  _239
REMARK  102  A    between atoms: _242  and  _244
REMARK  103  A    between atoms: _244  and  _245
REMARK  104  A    between atoms: _244  and  _247
REMARK  105  A    between atoms: _247  and  _248
REMARK  106  A    between atoms: _248  and  _249
REMARK  107  A    between atoms: _251  and  _253
REMARK  108  A    between atoms: _253  and  _254
REMARK  109  A    between atoms: _253  and  _256
REMARK  110  A    between atoms: _256  and  _257
REMARK  111  A    between atoms: _257  and  _258
REMARK  112  A    between atoms: _261  and  _263
REMARK  113  A    between atoms: _263  and  _264
REMARK  114  A    between atoms: _267  and  _269
REMARK  115  A    between atoms: _269  and  _270
REMARK  116  A    between atoms: _269  and  _272
REMARK  117  A    between atoms: _272  and  _273
REMARK  118  A    between atoms: _273  and  _274
REMARK  119  A    between atoms: _274  and  _275
REMARK  120  A    between atoms: _284  and  _286
REMARK  121  A    between atoms: _286  and  _287
REMARK  122  A    between atoms: _290  and  _292
REMARK  123  A    between atoms: _292  and  _293
REMARK  124  A    between atoms: _292  and  _295
REMARK  125  A    between atoms: _295  and  _296
REMARK  126  A    between atoms: _299  and  _301
REMARK  127  A    between atoms: _301  and  _302
REMARK  128  A    between atoms: _301  and  _304
REMARK  129  A    between atoms: _304  and  _305
REMARK  130  A    between atoms: _307  and  _309
REMARK  131  A    between atoms: _309  and  _310
REMARK  132  A    between atoms: _309  and  _312
REMARK  133  A    between atoms: _312  and  _313
REMARK  134  A    between atoms: _316  and  _318
REMARK  135  A    between atoms: _318  and  _319
REMARK  136  A    between atoms: _318  and  _321
REMARK  137  A    between atoms: _324  and  _326
REMARK  138  A    between atoms: _326  and  _327
REMARK  139  A    between atoms: _330  and  _332
REMARK  140  A    between atoms: _332  and  _333
REMARK  141  A    between atoms: _332  and  _335
REMARK  142  A    between atoms: _335  and  _336
REMARK  143  A    between atoms: _339  and  _341
REMARK  144  A    between atoms: _341  and  _342
REMARK  145  A    between atoms: _341  and  _344
REMARK  146  A    between atoms: _344  and  _345
REMARK  147  A    between atoms: _345  and  _346
REMARK  148  A    between atoms: _351  and  _353
REMARK  149  A    between atoms: _353  and  _354
REMARK  150  A    between atoms: _353  and  _356
REMARK  151  A    between atoms: _356  and  _357
REMARK  152  A    between atoms: _359  and  _361
REMARK  153  A    between atoms: _361  and  _362
REMARK  154  A    between atoms: _361  and  _364
REMARK  155  A    between atoms: _364  and  _365
REMARK  156  A    between atoms: _370  and  _372
REMARK  157  A    between atoms: _372  and  _373
REMARK  158  A    between atoms: _372  and  _375
REMARK  159  A    between atoms: _375  and  _376
REMARK  160  A    between atoms: _378  and  _380
REMARK  161  A    between atoms: _380  and  _381
REMARK  162  A    between atoms: _380  and  _383
REMARK  163  A    between atoms: _383  and  _384
REMARK  164  A    between atoms: _390  and  _392
REMARK  165  A    between atoms: _392  and  _393
REMARK  166  A    between atoms: _392  and  _395
REMARK  167  A    between atoms: _395  and  _396
REMARK  168  A    between atoms: _399  and  _401
REMARK  169  A    between atoms: _401  and  _402
REMARK  170  A    between atoms: _401  and  _404
REMARK  171  A    between atoms: _404  and  _405
REMARK  172  A    between atoms: _408  and  _410
REMARK  173  A    between atoms: _410  and  _411
REMARK  174  A    between atoms: _414  and  _416
REMARK  175  A    between atoms: _416  and  _417
REMARK  176  A    between atoms: _416  and  _419
REMARK  177  A    between atoms: _419  and  _420
REMARK  178  A    between atoms: _423  and  _425
REMARK  179  A    between atoms: _425  and  _426
REMARK  180  A    between atoms: _425  and  _428
REMARK  181  A    between atoms: _431  and  _433
REMARK  182  A    between atoms: _433  and  _434
REMARK  183  A    between atoms: _437  and  _439
REMARK  184  A    between atoms: _439  and  _440
REMARK  185  A    between atoms: _439  and  _442
REMARK  186  A    between atoms: _442  and  _443
REMARK  187  A    between atoms: _449  and  _451
REMARK  188  A    between atoms: _451  and  _452
REMARK  189  A    between atoms: _451  and  _454
REMARK  190  A    between atoms: _454  and  _455
REMARK  191  A    between atoms: _460  and  _461
REMARK  192  A    between atoms: _463  and  _465
REMARK  193  A    between atoms: _465  and  _466
REMARK  194  A    between atoms: _465  and  _468
REMARK  195  A    between atoms: _468  and  _469
REMARK  196  A    between atoms: _473  and  _474
REMARK                            x       y       z     vdW  Elec       q    Type
REMARK                         _______ _______ _______ _____ _____    ______ ____
ROOT
ATOM      1  O   HOH     1      60.725  68.181  30.046  0.00  0.00    +0.000 OA
ENDROOT
TORSDOF 0
REMARK  Name = ../refined-set-2016/1y6q/1y6q_pocket.pdb
REMARK  196 active torsions:
REMARK  status: ('A' for Active; 'I' for Inactive)
REMARK    1  A    between atoms: _1  and  _3
REMARK    2  A    between atoms: _3  and  _4
REMARK    3  A    between atoms: _6  and  _8
REMARK    4  A    between atoms: _8  and  _9
REMARK    5  A    between atoms: _12  and  _14
REMARK    6  A    between atoms: _14  and  _15
REMARK    7  A    between atoms: _14  and  _17
REMARK    8  A    between atoms: _17  and  _18
REMARK    9  A    between atoms: _18  and  _19
REMARK   10  A    between atoms: _21  and  _23
REMARK   11  A    between atoms: _23  and  _24
REMARK   12  A    between atoms: _23  and  _26
REMARK   13  A    between atoms: _26  and  _27
REMARK   14  A    between atoms: _27  and  _28
REMARK   15  A    between atoms: _31  and  _33
REMARK   16  A    between atoms: _33  and  _34
REMARK   17  A    between atoms: _33  and  _36
REMARK   18  A    between atoms: _36  and  _37
REMARK   19  A    between atoms: _39  and  _41
REMARK   20  A    between atoms: _41  and  _42
REMARK   21  A    between atoms: _44  and  _46
REMARK   22  A    between atoms: _46  and  _47
REMARK   23  A    between atoms: _46  and  _49
REMARK   24  A    between atoms: _49  and  _50
REMARK   25  A    between atoms: _53  and  _55
REMARK   26  A    between atoms: _55  and  _56
REMARK   27  A    between atoms: _58  and  _60
REMARK   28  A    between atoms: _60  and  _61
REMARK   29  A    between atoms: _60  and  _63
REMARK   30  A    between atoms: _63  and  _64
REMARK   31  A    between atoms: _69  and  _71
REMARK   32  A    between atoms: _71  and  _72
REMARK   33  A    between atoms: _71  and  _74
REMARK   34  A    between atoms: _74  and  _75
REMARK   35  A    between atoms: _78  and  _80
REMARK   36  A    between atoms: _80  and  _81
REMARK   37  A    between atoms: _83  and  _85
REMARK   38  A    between atoms: _85  and  _86
REMARK   39  A    between atoms: _85  and  _88
REMARK   40  A    between atoms: _88  and  _89
REMARK   41  A    between atoms: _91  and  _93
REMARK   42  A    between atoms: _93  and  _94
REMARK   43  A    between atoms: _97  and  _99
REMARK   44  A    between atoms: _99  and  _100
REMARK   45  A    between atoms: _102  and  _104
REMARK   46  A    between atoms: _104  and  _105
REMARK   47  A    between atoms: _107  and  _109
REMARK   48  A    between atoms: _109  and  _110
REMARK   49  A    between atoms: _109  and  _112
REMARK   50  A    between atoms: _112  and  _113
REMARK   51  A    between atoms: _116  and  _118
REMARK   52  A    between atoms: _118  and  _119
REMARK   53  A    between atoms: _118  and  _121
REMARK   54  A    between atoms: _121  and  _122
REMARK   55  A    between atoms: _127  and  _129
REMARK   56  A    between atoms: _129  and  _130
REMARK   57  A    between atoms: _129  and  _132
REMARK   58  A    between atoms: _135  and  _137
REMARK   59  A    between atoms: _137  and  _138
REMARK   60  A    between atoms: _137  and  _140
REMARK   61  A    between atoms: _140  and  _141
REMARK   62  A    between atoms: _143  and  _145
REMARK   63  A    between atoms: _145  and  _146
REMARK   64  A    between atoms: _148  and  _150
REMARK   65  A    between atoms: _150  and  _151
REMARK   66  A    between atoms: _150  and  _153
REMARK   67  A    between atoms: _153  and  _154
REMARK   68  A    between atoms: _157  and  _159
REMARK   69  A    between atoms: _159  and  _160
REMARK   70  A    between atoms: _163  and  _165
REMARK   71  A    between atoms: _165  and  _166
REMARK   72  A    between atoms: _165  and  _168
REMARK   73  A    between atoms: _168  and  _169
REMARK   74  A    between atoms: _175  and  _177
REMARK   75  A    between atoms: _177  and  _178
REMARK   76  A    between atoms: _177  and  _180
REMARK   77  A    between atoms: _180  and  _181
REMARK   78  A    between atoms: _184  and  _186
REMARK   79  A    between atoms: _186  and  _187
REMARK   80  A    between atoms: _186  and  _189
REMARK   81  A    between atoms: _189  and  _190
REMARK   82  A    between atoms: _195  and  _197
REMARK   83  A    between atoms: _197  and  _198
REMARK   84  A    between atoms: _200  and  _202
REMARK   85  A    between atoms: _202  and  _203
REMARK   86  A    between atoms: _202  and  _205
REMARK   87  A    between atoms: _205  and  _206
REMARK   88  A    between atoms: _209  and  _211
REMARK   89  A    between atoms: _211  and  _212
REMARK   90  A    between atoms: _211  and  _214
REMARK   91  A    between atoms: _214  and  _215
REMARK   92  A    between atoms: _218  and  _220
REMARK   93  A    between atoms: _220  and  _221
REMARK   94  A    between atoms: _224  and  _226
REMARK   95  A    between atoms: _226  and  _227
REMARK   96  A    between atoms: _226  and  _229
REMARK   97  A    between atoms: _232  and  _234
REMARK   98  A    between atoms: _234  and  _235
REMARK   99  A    between atoms: _234  and  _237
REMARK  100  A    between atoms: _237  and  _238
REMARK  101  A    between atoms: _238  and  _239
REMARK  102  A    between atoms: _242  and  _244
REMARK  103  A    between atoms: _244  and  _245
REMARK  104  A    between atoms: _244  and  _247
REMARK  105  A    between atoms: _247  and  _248
REMARK  106  A    between atoms: _248  and  _249
REMARK  107  A    between atoms: _251  and  _253
REMARK  108  A    between atoms: _253  and  _254
REMARK  109  A    between atoms: _253  and  _256
REMARK  110  A    between atoms: _256  and  _257
REMARK  111  A    between atoms: _257  and  _258
REMARK  112  A    between atoms: _261  and  _263
REMARK  113  A    between atoms: _263  and  _264
REMARK  114  A    between atoms: _267  and  _269
REMARK  115  A    between atoms: _269  and  _270
REMARK  116  A    between atoms: _269  and  _272
REMARK  117  A    between atoms: _272  and  _273
REMARK  118  A    between atoms: _273  and  _274
REMARK  119  A    between atoms: _274  and  _275
REMARK  120  A    between atoms: _284  and  _286
REMARK  121  A    between atoms: _286  and  _287
REMARK  122  A    between atoms: _290  and  _292
REMARK  123  A    between atoms: _292  and  _293
REMARK  124  A    between atoms: _292  and  _295
REMARK  125  A    between atoms: _295  and  _296
REMARK  126  A    between atoms: _299  and  _301
REMARK  127  A    between atoms: _301  and  _302
REMARK  128  A    between atoms: _301  and  _304
REMARK  129  A    between atoms: _304  and  _305
REMARK  130  A    between atoms: _307  and  _309
REMARK  131  A    between atoms: _309  and  _310
REMARK  132  A    between atoms: _309  and  _312
REMARK  133  A    between atoms: _312  and  _313
REMARK  134  A    between atoms: _316  and  _318
REMARK  135  A    between atoms: _318  and  _319
REMARK  136  A    between atoms: _318  and  _321
REMARK  137  A    between atoms: _324  and  _326
REMARK  138  A    between atoms: _326  and  _327
REMARK  139  A    between atoms: _330  and  _332
REMARK  140  A    between atoms: _332  and  _333
REMARK  141  A    between atoms: _332  and  _335
REMARK  142  A    between atoms: _335  and  _336
REMARK  143  A    between atoms: _339  and  _341
REMARK  144  A    between atoms: _341  and  _342
REMARK  145  A    between atoms: _341  and  _344
REMARK  146  A    between atoms: _344  and  _345
REMARK  147  A    between atoms: _345  and  _346
REMARK  148  A    between atoms: _351  and  _353
REMARK  149  A    between atoms: _353  and  _354
REMARK  150  A    between atoms: _353  and  _356
REMARK  151  A    between atoms: _356  and  _357
REMARK  152  A    between atoms: _359  and  _361
REMARK  153  A    between atoms: _361  and  _362
REMARK  154  A    between atoms: _361  and  _364
REMARK  155  A    between atoms: _364  and  _365
REMARK  156  A    between atoms: _370  and  _372
REMARK  157  A    between atoms: _372  and  _373
REMARK  158  A    between atoms: _372  and  _375
REMARK  159  A    between atoms: _375  and  _376
REMARK  160  A    between atoms: _378  and  _380
REMARK  161  A    between atoms: _380  and  _381
REMARK  162  A    between atoms: _380  and  _383
REMARK  163  A    between atoms: _383  and  _384
REMARK  164  A    between atoms: _390  and  _392
REMARK  165  A    between atoms: _392  and  _393
REMARK  166  A    between atoms: _392  and  _395
REMARK  167  A    between atoms: _395  and  _396
REMARK  168  A    between atoms: _399  and  _401
REMARK  169  A    between atoms: _401  and  _402
REMARK  170  A    between atoms: _401  and  _404
REMARK  171  A    between atoms: _404  and  _405
REMARK  172  A    between atoms: _408  and  _410
REMARK  173  A    between atoms: _410  and  _411
REMARK  174  A    between atoms: _414  and  _416
REMARK  175  A    between atoms: _416  and  _417
REMARK  176  A    between atoms: _416  and  _419
REMARK  177  A    between atoms: _419  and  _420
REMARK  178  A    between atoms: _423  and  _425
REMARK  179  A    between atoms: _425  and  _426
REMARK  180  A    between atoms: _425  and  _428
REMARK  181  A    between atoms: _431  and  _433
REMARK  182  A    between atoms: _433  and  _434
REMARK  183  A    between atoms: _437  and  _439
REMARK  184  A    between atoms: _439  and  _440
REMARK  185  A    between atoms: _439  and  _442
REMARK  186  A    between atoms: _442  and  _443
REMARK  187  A    between atoms: _449  and  _451
REMARK  188  A    between atoms: _451  and  _452
REMARK  189  A    between atoms: _451  and  _454
REMARK  190  A    between atoms: _454  and  _455
REMARK  191  A    between atoms: _460  and  _461
REMARK  192  A    between atoms: _463  and  _465
REMARK  193  A    between atoms: _465  and  _466
REMARK  194  A    between atoms: _465  and  _468
REMARK  195  A    between atoms: _468  and  _469
REMARK  196  A    between atoms: _473  and  _474
REMARK                            x       y       z     vdW  Elec       q    Type
REMARK                         _______ _______ _______ _____ _____    ______ ____
ROOT
ATOM      1  O   HOH     1      48.097  69.955  23.273  0.00  0.00    +0.000 OA
ENDROOT
TORSDOF 0
