REMARK  Name = ../refined-set-2016/1tkb/1tkb_pocket.pdb
REMARK  249 active torsions:
REMARK  status: ('A' for Active; 'I' for Inactive)
REMARK    1  A    between atoms: _1  and  _3
REMARK    2  A    between atoms: _3  and  _4
REMARK    3  A    between atoms: _3  and  _6
REMARK    4  A    between atoms: _6  and  _7
REMARK    5  A    between atoms: _9  and  _11
REMARK    6  A    between atoms: _11  and  _12
REMARK    7  A    between atoms: _15  and  _17
REMARK    8  A    between atoms: _17  and  _18
REMARK    9  A    between atoms: _17  and  _20
REMARK   10  A    between atoms: _20  and  _21
REMARK   11  A    between atoms: _24  and  _26
REMARK   12  A    between atoms: _26  and  _27
REMARK   13  A    between atoms: _26  and  _29
REMARK   14  A    between atoms: _29  and  _30
REMARK   15  A    between atoms: _33  and  _35
REMARK   16  A    between atoms: _35  and  _36
REMARK   17  A    between atoms: _35  and  _38
REMARK   18  A    between atoms: _38  and  _39
REMARK   19  A    between atoms: _42  and  _44
REMARK   20  A    between atoms: _44  and  _45
REMARK   21  A    between atoms: _44  and  _47
REMARK   22  A    between atoms: _47  and  _48
REMARK   23  A    between atoms: _50  and  _52
REMARK   24  A    between atoms: _52  and  _53
REMARK   25  A    between atoms: _52  and  _55
REMARK   26  A    between atoms: _55  and  _56
REMARK   27  A    between atoms: _61  and  _63
REMARK   28  A    between atoms: _63  and  _64
REMARK   29  A    between atoms: _66  and  _68
REMARK   30  A    between atoms: _68  and  _69
REMARK   31  A    between atoms: _68  and  _71
REMARK   32  A    between atoms: _71  and  _72
REMARK   33  A    between atoms: _75  and  _77
REMARK   34  A    between atoms: _77  and  _78
REMARK   35  A    between atoms: _77  and  _80
REMARK   36  A    between atoms: _80  and  _81
REMARK   37  A    between atoms: _81  and  _82
REMARK   38  A    between atoms: _82  and  _83
REMARK   39  A    between atoms: _92  and  _94
REMARK   40  A    between atoms: _94  and  _95
REMARK   41  A    between atoms: _94  and  _97
REMARK   42  A    between atoms: _97  and  _98
REMARK   43  A    between atoms: _98  and  _99
REMARK   44  A    between atoms: _102  and  _104
REMARK   45  A    between atoms: _104  and  _105
REMARK   46  A    between atoms: _104  and  _107
REMARK   47  A    between atoms: _107  and  _108
REMARK   48  A    between atoms: _113  and  _115
REMARK   49  A    between atoms: _115  and  _116
REMARK   50  A    between atoms: _115  and  _118
REMARK   51  A    between atoms: _118  and  _119
REMARK   52  A    between atoms: _122  and  _124
REMARK   53  A    between atoms: _124  and  _125
REMARK   54  A    between atoms: _124  and  _127
REMARK   55  A    between atoms: _127  and  _128
REMARK   56  A    between atoms: _134  and  _136
REMARK   57  A    between atoms: _136  and  _137
REMARK   58  A    between atoms: _136  and  _139
REMARK   59  A    between atoms: _139  and  _140
REMARK   60  A    between atoms: _145  and  _147
REMARK   61  A    between atoms: _147  and  _148
REMARK   62  A    between atoms: _147  and  _150
REMARK   63  A    between atoms: _150  and  _151
REMARK   64  A    between atoms: _157  and  _159
REMARK   65  A    between atoms: _159  and  _160
REMARK   66  A    between atoms: _159  and  _162
REMARK   67  A    between atoms: _165  and  _167
REMARK   68  A    between atoms: _167  and  _168
REMARK   69  A    between atoms: _167  and  _170
REMARK   70  A    between atoms: _170  and  _171
REMARK   71  A    between atoms: _176  and  _177
REMARK   72  A    between atoms: _179  and  _181
REMARK   73  A    between atoms: _181  and  _182
REMARK   74  A    between atoms: _181  and  _184
REMARK   75  A    between atoms: _184  and  _185
REMARK   76  A    between atoms: _188  and  _190
REMARK   77  A    between atoms: _190  and  _191
REMARK   78  A    between atoms: _190  and  _193
REMARK   79  A    between atoms: _193  and  _194
REMARK   80  A    between atoms: _197  and  _199
REMARK   81  A    between atoms: _199  and  _200
REMARK   82  A    between atoms: _199  and  _202
REMARK   83  A    between atoms: _202  and  _203
REMARK   84  A    between atoms: _208  and  _210
REMARK   85  A    between atoms: _210  and  _211
REMARK   86  A    between atoms: _210  and  _213
REMARK   87  A    between atoms: _213  and  _214
REMARK   88  A    between atoms: _220  and  _221
REMARK   89  A    between atoms: _226  and  _228
REMARK   90  A    between atoms: _228  and  _229
REMARK   91  A    between atoms: _231  and  _233
REMARK   92  A    between atoms: _233  and  _234
REMARK   93  A    between atoms: _238  and  _239
REMARK   94  A    between atoms: _244  and  _246
REMARK   95  A    between atoms: _246  and  _247
REMARK   96  A    between atoms: _249  and  _251
REMARK   97  A    between atoms: _251  and  _252
REMARK   98  A    between atoms: _251  and  _254
REMARK   99  A    between atoms: _254  and  _255
REMARK  100  A    between atoms: _255  and  _256
REMARK  101  A    between atoms: _258  and  _260
REMARK  102  A    between atoms: _260  and  _261
REMARK  103  A    between atoms: _260  and  _263
REMARK  104  A    between atoms: _263  and  _264
REMARK  105  A    between atoms: _266  and  _268
REMARK  106  A    between atoms: _268  and  _269
REMARK  107  A    between atoms: _268  and  _271
REMARK  108  A    between atoms: _271  and  _272
REMARK  109  A    between atoms: _277  and  _279
REMARK  110  A    between atoms: _279  and  _280
REMARK  111  A    between atoms: _282  and  _284
REMARK  112  A    between atoms: _284  and  _285
REMARK  113  A    between atoms: _284  and  _287
REMARK  114  A    between atoms: _287  and  _288
REMARK  115  A    between atoms: _293  and  _295
REMARK  116  A    between atoms: _295  and  _296
REMARK  117  A    between atoms: _299  and  _301
REMARK  118  A    between atoms: _301  and  _302
REMARK  119  A    between atoms: _301  and  _304
REMARK  120  A    between atoms: _304  and  _305
REMARK  121  A    between atoms: _310  and  _312
REMARK  122  A    between atoms: _312  and  _313
REMARK  123  A    between atoms: _312  and  _315
REMARK  124  A    between atoms: _315  and  _316
REMARK  125  A    between atoms: _319  and  _321
REMARK  126  A    between atoms: _321  and  _322
REMARK  127  A    between atoms: _325  and  _326
REMARK  128  A    between atoms: _331  and  _333
REMARK  129  A    between atoms: _333  and  _334
REMARK  130  A    between atoms: _333  and  _336
REMARK  131  A    between atoms: _336  and  _337
REMARK  132  A    between atoms: _340  and  _342
REMARK  133  A    between atoms: _342  and  _343
REMARK  134  A    between atoms: _345  and  _347
REMARK  135  A    between atoms: _347  and  _348
REMARK  136  A    between atoms: _347  and  _350
REMARK  137  A    between atoms: _350  and  _351
REMARK  138  A    between atoms: _351  and  _352
REMARK  139  A    between atoms: _357  and  _359
REMARK  140  A    between atoms: _359  and  _360
REMARK  141  A    between atoms: _359  and  _362
REMARK  142  A    between atoms: _362  and  _363
REMARK  143  A    between atoms: _366  and  _368
REMARK  144  A    between atoms: _368  and  _369
REMARK  145  A    between atoms: _371  and  _373
REMARK  146  A    between atoms: _373  and  _374
REMARK  147  A    between atoms: _373  and  _376
REMARK  148  A    between atoms: _376  and  _377
REMARK  149  A    between atoms: _380  and  _382
REMARK  150  A    between atoms: _382  and  _383
REMARK  151  A    between atoms: _385  and  _387
REMARK  152  A    between atoms: _387  and  _388
REMARK  153  A    between atoms: _387  and  _390
REMARK  154  A    between atoms: _392  and  _394
REMARK  155  A    between atoms: _394  and  _395
REMARK  156  A    between atoms: _394  and  _397
REMARK  157  A    between atoms: _397  and  _398
REMARK  158  A    between atoms: _401  and  _403
REMARK  159  A    between atoms: _403  and  _404
REMARK  160  A    between atoms: _403  and  _406
REMARK  161  A    between atoms: _406  and  _407
REMARK  162  A    between atoms: _407  and  _408
REMARK  163  A    between atoms: _413  and  _415
REMARK  164  A    between atoms: _415  and  _416
REMARK  165  A    between atoms: _415  and  _418
REMARK  166  A    between atoms: _418  and  _419
REMARK  167  A    between atoms: _419  and  _420
REMARK  168  A    between atoms: _423  and  _425
REMARK  169  A    between atoms: _425  and  _426
REMARK  170  A    between atoms: _425  and  _428
REMARK  171  A    between atoms: _428  and  _429
REMARK  172  A    between atoms: _432  and  _434
REMARK  173  A    between atoms: _434  and  _435
REMARK  174  A    between atoms: _434  and  _437
REMARK  175  A    between atoms: _437  and  _438
REMARK  176  A    between atoms: _443  and  _444
REMARK  177  A    between atoms: _446  and  _448
REMARK  178  A    between atoms: _448  and  _449
REMARK  179  A    between atoms: _448  and  _451
REMARK  180  A    between atoms: _451  and  _452
REMARK  181  A    between atoms: _455  and  _457
REMARK  182  A    between atoms: _457  and  _458
REMARK  183  A    between atoms: _457  and  _460
REMARK  184  A    between atoms: _460  and  _461
REMARK  185  A    between atoms: _464  and  _466
REMARK  186  A    between atoms: _470  and  _472
REMARK  187  A    between atoms: _477  and  _480
REMARK  188  A    between atoms: _480  and  _481
REMARK  189  A    between atoms: _481  and  _482
REMARK  190  A    between atoms: _482  and  _483
REMARK  191  A    between atoms: _483  and  _484
REMARK  192  A    between atoms: _490  and  _493
REMARK  193  A    between atoms: _491  and  _497
REMARK  194  A    between atoms: _493  and  _494
REMARK  195  A    between atoms: _497  and  _499
REMARK  196  A    between atoms: _499  and  _500
REMARK  197  A    between atoms: _499  and  _502
REMARK  198  A    between atoms: _502  and  _503
REMARK  199  A    between atoms: _506  and  _508
REMARK  200  A    between atoms: _508  and  _509
REMARK  201  A    between atoms: _508  and  _511
REMARK  202  A    between atoms: _511  and  _512
REMARK  203  A    between atoms: _515  and  _517
REMARK  204  A    between atoms: _517  and  _518
REMARK  205  A    between atoms: _517  and  _520
REMARK  206  A    between atoms: _520  and  _521
REMARK  207  A    between atoms: _524  and  _526
REMARK  208  A    between atoms: _526  and  _527
REMARK  209  A    between atoms: _529  and  _531
REMARK  210  A    between atoms: _531  and  _532
REMARK  211  A    between atoms: _531  and  _534
REMARK  212  A    between atoms: _534  and  _535
REMARK  213  A    between atoms: _538  and  _540
REMARK  214  A    between atoms: _540  and  _541
REMARK  215  A    between atoms: _540  and  _543
REMARK  216  A    between atoms: _543  and  _544
REMARK  217  A    between atoms: _550  and  _552
REMARK  218  A    between atoms: _552  and  _553
REMARK  219  A    between atoms: _552  and  _555
REMARK  220  A    between atoms: _555  and  _556
REMARK  221  A    between atoms: _559  and  _561
REMARK  222  A    between atoms: _561  and  _562
REMARK  223  A    between atoms: _561  and  _564
REMARK  224  A    between atoms: _564  and  _565
REMARK  225  A    between atoms: _568  and  _570
REMARK  226  A    between atoms: _570  and  _571
REMARK  227  A    between atoms: _573  and  _575
REMARK  228  A    between atoms: _575  and  _576
REMARK  229  A    between atoms: _575  and  _578
REMARK  230  A    between atoms: _578  and  _579
REMARK  231  A    between atoms: _581  and  _583
REMARK  232  A    between atoms: _583  and  _584
REMARK  233  A    between atoms: _583  and  _586
REMARK  234  A    between atoms: _586  and  _587
REMARK  235  A    between atoms: _592  and  _594
REMARK  236  A    between atoms: _594  and  _595
REMARK  237  A    between atoms: _594  and  _597
REMARK  238  A    between atoms: _600  and  _602
REMARK  239  A    between atoms: _602  and  _603
REMARK  240  A    between atoms: _602  and  _605
REMARK  241  A    between atoms: _605  and  _606
REMARK  242  A    between atoms: _611  and  _613
REMARK  243  A    between atoms: _613  and  _614
REMARK  244  A    between atoms: _616  and  _618
REMARK  245  A    between atoms: _618  and  _619
REMARK  246  A    between atoms: _618  and  _621
REMARK  247  A    between atoms: _621  and  _622
REMARK  248  A    between atoms: _627  and  _629
REMARK  249  A    between atoms: _629  and  _630
REMARK                            x       y       z     vdW  Elec       q    Type
REMARK                         _______ _______ _______ _____ _____    ______ ____
ROOT
ATOM      1  CA  ASP A   3      22.159  67.928  24.732  0.00  0.00    +0.160 C 
ENDROOT
BRANCH   1   4
ATOM      2  C   ALA A   2      20.031  66.804  25.492  0.00  0.00    +0.241 C 
ATOM      3  O   ALA A   2      19.531  67.788  26.051  0.00  0.00    -0.273 OA
ATOM      4  N   ASP A   3      21.232  66.813  24.876  0.00  0.00    -0.297 N 
ATOM      5  H   ASP A   3      21.533  65.913  24.452  0.00  0.00    +0.150 HD
BRANCH   2   6
ATOM      6  CA  ALA A   2      19.408  65.394  25.499  0.00  0.00    +0.149 C 
ATOM      7  CB  ALA A   2      17.902  65.477  25.723  0.00  0.00    +0.031 C 
BRANCH   6   9
ATOM      8  C   SER A   1      21.184  63.936  26.409  0.00  0.00    +0.241 C 
ATOM      9  N   ALA A   2      20.045  64.649  26.579  0.00  0.00    -0.297 N 
ATOM     10  H   ALA A   2      19.605  64.666  27.521  0.00  0.00    +0.150 HD
ATOM     11  O   SER A   1      21.763  63.763  25.322  0.00  0.00    -0.274 OA
BRANCH   8  12
ATOM     12  CA  SER A   1      21.817  63.345  27.636  0.00  0.00    +0.174 C 
BRANCH  12  13
ATOM     13  N   SER A   1      22.372  62.077  27.267  0.00  0.00    -0.236 NA
ATOM     14  H   SER A   1      22.596  61.880  26.271  0.00  0.00    +0.142 HD
ENDBRANCH  12  13
BRANCH  12  15
ATOM     15  CB  SER A   1      22.944  64.198  28.095  0.00  0.00    +0.163 C 
BRANCH  15  16
ATOM     16  OG  SER A   1      22.500  65.430  28.647  0.00  0.00    -0.380 OA
ATOM     17  H   SER A   1      23.283  65.961  28.937  0.00  0.00    +0.211 HD
ENDBRANCH  15  16
ENDBRANCH  12  15
ENDBRANCH   8  12
ENDBRANCH   6   9
ENDBRANCH   2   6
ENDBRANCH   1   4
BRANCH   1  18
ATOM     18  C   ASP A   3      22.578  68.612  26.024  0.00  0.00    +0.241 C 
ATOM     19  N   LEU A   4      22.361  68.127  27.237  0.00  0.00    -0.297 N 
ATOM     20  H   LEU A   4      21.873  67.216  27.350  0.00  0.00    +0.150 HD
ATOM     21  O   ASP A   3      23.223  69.652  25.977  0.00  0.00    -0.273 OA
BRANCH  19  22
ATOM     22  CA  LEU A   4      22.802  68.862  28.410  0.00  0.00    +0.149 C 
BRANCH  22  23
ATOM     23  C   LEU A   4      24.016  68.261  29.087  0.00  0.00    +0.241 C 
ATOM     24  O   LEU A   4      24.203  68.506  30.276  0.00  0.00    -0.273 OA
ATOM     25  N   THR A   5      24.897  67.497  28.423  0.00  0.00    -0.296 N 
ATOM     26  H   THR A   5      24.820  67.436  27.388  0.00  0.00    +0.150 HD
BRANCH  25  27
ATOM     27  CA  THR A   5      25.966  66.742  29.092  0.00  0.00    +0.164 C 
BRANCH  27  28
ATOM     28  CB  THR A   5      26.890  66.087  27.973  0.00  0.00    +0.136 C 
ATOM     29  CG2 THR A   5      28.006  65.166  28.439  0.00  0.00    +0.034 C 
BRANCH  28  30
ATOM     30  OG1 THR A   5      25.979  65.306  27.188  0.00  0.00    -0.382 OA
ATOM     31  HG1 THR A   5      25.549  64.625  27.764  0.00  0.00    +0.210 HD
ENDBRANCH  28  30
ENDBRANCH  27  28
BRANCH  27  32
ATOM     32  C   THR A   5      26.800  67.490  30.135  0.00  0.00    +0.229 C 
ATOM     33  O   THR A   5      26.983  66.932  31.231  0.00  0.00    -0.286 OA
ENDBRANCH  27  32
ENDBRANCH  25  27
ENDBRANCH  22  23
BRANCH  22  34
ATOM     34  CB  LEU A   4      21.571  68.953  29.328  0.00  0.00    +0.029 C 
BRANCH  34  35
ATOM     35  CG  LEU A   4      20.509  69.963  28.814  0.00  0.00    +0.002 C 
ATOM     36  CD2 LEU A   4      19.132  69.758  29.431  0.00  0.00    +0.000 C 
ATOM     37  CD1 LEU A   4      21.087  71.357  29.083  0.00  0.00    +0.000 C 
ENDBRANCH  34  35
ENDBRANCH  22  34
ENDBRANCH  19  22
ENDBRANCH   1  18
BRANCH   1  38
ATOM     38  CB  ASP A   3      21.582  69.007  23.768  0.00  0.00    +0.143 C 
BRANCH  38  39
ATOM     39  CG  ASP A   3      22.602  69.975  23.136  0.00  0.00    +0.367 C 
ATOM     40  OD2 ASP A   3      22.317  71.157  22.987  0.00  0.00    -0.246 OA
ATOM     41  OD1 ASP A   3      23.704  69.561  22.793  0.00  0.00    -0.246 OA
ENDBRANCH  38  39
ENDBRANCH   1  38
TORSDOF 18
REMARK  Name = ../refined-set-2016/1tkb/1tkb_pocket.pdb
REMARK  249 active torsions:
REMARK  status: ('A' for Active; 'I' for Inactive)
REMARK    1  A    between atoms: _1  and  _3
REMARK    2  A    between atoms: _3  and  _4
REMARK    3  A    between atoms: _3  and  _6
REMARK    4  A    between atoms: _6  and  _7
REMARK    5  A    between atoms: _9  and  _11
REMARK    6  A    between atoms: _11  and  _12
REMARK    7  A    between atoms: _15  and  _17
REMARK    8  A    between atoms: _17  and  _18
REMARK    9  A    between atoms: _17  and  _20
REMARK   10  A    between atoms: _20  and  _21
REMARK   11  A    between atoms: _24  and  _26
REMARK   12  A    between atoms: _26  and  _27
REMARK   13  A    between atoms: _26  and  _29
REMARK   14  A    between atoms: _29  and  _30
REMARK   15  A    between atoms: _33  and  _35
REMARK   16  A    between atoms: _35  and  _36
REMARK   17  A    between atoms: _35  and  _38
REMARK   18  A    between atoms: _38  and  _39
REMARK   19  A    between atoms: _42  and  _44
REMARK   20  A    between atoms: _44  and  _45
REMARK   21  A    between atoms: _44  and  _47
REMARK   22  A    between atoms: _47  and  _48
REMARK   23  A    between atoms: _50  and  _52
REMARK   24  A    between atoms: _52  and  _53
REMARK   25  A    between atoms: _52  and  _55
REMARK   26  A    between atoms: _55  and  _56
REMARK   27  A    between atoms: _61  and  _63
REMARK   28  A    between atoms: _63  and  _64
REMARK   29  A    between atoms: _66  and  _68
REMARK   30  A    between atoms: _68  and  _69
REMARK   31  A    between atoms: _68  and  _71
REMARK   32  A    between atoms: _71  and  _72
REMARK   33  A    between atoms: _75  and  _77
REMARK   34  A    between atoms: _77  and  _78
REMARK   35  A    between atoms: _77  and  _80
REMARK   36  A    between atoms: _80  and  _81
REMARK   37  A    between atoms: _81  and  _82
REMARK   38  A    between atoms: _82  and  _83
REMARK   39  A    between atoms: _92  and  _94
REMARK   40  A    between atoms: _94  and  _95
REMARK   41  A    between atoms: _94  and  _97
REMARK   42  A    between atoms: _97  and  _98
REMARK   43  A    between atoms: _98  and  _99
REMARK   44  A    between atoms: _102  and  _104
REMARK   45  A    between atoms: _104  and  _105
REMARK   46  A    between atoms: _104  and  _107
REMARK   47  A    between atoms: _107  and  _108
REMARK   48  A    between atoms: _113  and  _115
REMARK   49  A    between atoms: _115  and  _116
REMARK   50  A    between atoms: _115  and  _118
REMARK   51  A    between atoms: _118  and  _119
REMARK   52  A    between atoms: _122  and  _124
REMARK   53  A    between atoms: _124  and  _125
REMARK   54  A    between atoms: _124  and  _127
REMARK   55  A    between atoms: _127  and  _128
REMARK   56  A    between atoms: _134  and  _136
REMARK   57  A    between atoms: _136  and  _137
REMARK   58  A    between atoms: _136  and  _139
REMARK   59  A    between atoms: _139  and  _140
REMARK   60  A    between atoms: _145  and  _147
REMARK   61  A    between atoms: _147  and  _148
REMARK   62  A    between atoms: _147  and  _150
REMARK   63  A    between atoms: _150  and  _151
REMARK   64  A    between atoms: _157  and  _159
REMARK   65  A    between atoms: _159  and  _160
REMARK   66  A    between atoms: _159  and  _162
REMARK   67  A    between atoms: _165  and  _167
REMARK   68  A    between atoms: _167  and  _168
REMARK   69  A    between atoms: _167  and  _170
REMARK   70  A    between atoms: _170  and  _171
REMARK   71  A    between atoms: _176  and  _177
REMARK   72  A    between atoms: _179  and  _181
REMARK   73  A    between atoms: _181  and  _182
REMARK   74  A    between atoms: _181  and  _184
REMARK   75  A    between atoms: _184  and  _185
REMARK   76  A    between atoms: _188  and  _190
REMARK   77  A    between atoms: _190  and  _191
REMARK   78  A    between atoms: _190  and  _193
REMARK   79  A    between atoms: _193  and  _194
REMARK   80  A    between atoms: _197  and  _199
REMARK   81  A    between atoms: _199  and  _200
REMARK   82  A    between atoms: _199  and  _202
REMARK   83  A    between atoms: _202  and  _203
REMARK   84  A    between atoms: _208  and  _210
REMARK   85  A    between atoms: _210  and  _211
REMARK   86  A    between atoms: _210  and  _213
REMARK   87  A    between atoms: _213  and  _214
REMARK   88  A    between atoms: _220  and  _221
REMARK   89  A    between atoms: _226  and  _228
REMARK   90  A    between atoms: _228  and  _229
REMARK   91  A    between atoms: _231  and  _233
REMARK   92  A    between atoms: _233  and  _234
REMARK   93  A    between atoms: _238  and  _239
REMARK   94  A    between atoms: _244  and  _246
REMARK   95  A    between atoms: _246  and  _247
REMARK   96  A    between atoms: _249  and  _251
REMARK   97  A    between atoms: _251  and  _252
REMARK   98  A    between atoms: _251  and  _254
REMARK   99  A    between atoms: _254  and  _255
REMARK  100  A    between atoms: _255  and  _256
REMARK  101  A    between atoms: _258  and  _260
REMARK  102  A    between atoms: _260  and  _261
REMARK  103  A    between atoms: _260  and  _263
REMARK  104  A    between atoms: _263  and  _264
REMARK  105  A    between atoms: _266  and  _268
REMARK  106  A    between atoms: _268  and  _269
REMARK  107  A    between atoms: _268  and  _271
REMARK  108  A    between atoms: _271  and  _272
REMARK  109  A    between atoms: _277  and  _279
REMARK  110  A    between atoms: _279  and  _280
REMARK  111  A    between atoms: _282  and  _284
REMARK  112  A    between atoms: _284  and  _285
REMARK  113  A    between atoms: _284  and  _287
REMARK  114  A    between atoms: _287  and  _288
REMARK  115  A    between atoms: _293  and  _295
REMARK  116  A    between atoms: _295  and  _296
REMARK  117  A    between atoms: _299  and  _301
REMARK  118  A    between atoms: _301  and  _302
REMARK  119  A    between atoms: _301  and  _304
REMARK  120  A    between atoms: _304  and  _305
REMARK  121  A    between atoms: _310  and  _312
REMARK  122  A    between atoms: _312  and  _313
REMARK  123  A    between atoms: _312  and  _315
REMARK  124  A    between atoms: _315  and  _316
REMARK  125  A    between atoms: _319  and  _321
REMARK  126  A    between atoms: _321  and  _322
REMARK  127  A    between atoms: _325  and  _326
REMARK  128  A    between atoms: _331  and  _333
REMARK  129  A    between atoms: _333  and  _334
REMARK  130  A    between atoms: _333  and  _336
REMARK  131  A    between atoms: _336  and  _337
REMARK  132  A    between atoms: _340  and  _342
REMARK  133  A    between atoms: _342  and  _343
REMARK  134  A    between atoms: _345  and  _347
REMARK  135  A    between atoms: _347  and  _348
REMARK  136  A    between atoms: _347  and  _350
REMARK  137  A    between atoms: _350  and  _351
REMARK  138  A    between atoms: _351  and  _352
REMARK  139  A    between atoms: _357  and  _359
REMARK  140  A    between atoms: _359  and  _360
REMARK  141  A    between atoms: _359  and  _362
REMARK  142  A    between atoms: _362  and  _363
REMARK  143  A    between atoms: _366  and  _368
REMARK  144  A    between atoms: _368  and  _369
REMARK  145  A    between atoms: _371  and  _373
REMARK  146  A    between atoms: _373  and  _374
REMARK  147  A    between atoms: _373  and  _376
REMARK  148  A    between atoms: _376  and  _377
REMARK  149  A    between atoms: _380  and  _382
REMARK  150  A    between atoms: _382  and  _383
REMARK  151  A    between atoms: _385  and  _387
REMARK  152  A    between atoms: _387  and  _388
REMARK  153  A    between atoms: _387  and  _390
REMARK  154  A    between atoms: _392  and  _394
REMARK  155  A    between atoms: _394  and  _395
REMARK  156  A    between atoms: _394  and  _397
REMARK  157  A    between atoms: _397  and  _398
REMARK  158  A    between atoms: _401  and  _403
REMARK  159  A    between atoms: _403  and  _404
REMARK  160  A    between atoms: _403  and  _406
REMARK  161  A    between atoms: _406  and  _407
REMARK  162  A    between atoms: _407  and  _408
REMARK  163  A    between atoms: _413  and  _415
REMARK  164  A    between atoms: _415  and  _416
REMARK  165  A    between atoms: _415  and  _418
REMARK  166  A    between atoms: _418  and  _419
REMARK  167  A    between atoms: _419  and  _420
REMARK  168  A    between atoms: _423  and  _425
REMARK  169  A    between atoms: _425  and  _426
REMARK  170  A    between atoms: _425  and  _428
REMARK  171  A    between atoms: _428  and  _429
REMARK  172  A    between atoms: _432  and  _434
REMARK  173  A    between atoms: _434  and  _435
REMARK  174  A    between atoms: _434  and  _437
REMARK  175  A    between atoms: _437  and  _438
REMARK  176  A    between atoms: _443  and  _444
REMARK  177  A    between atoms: _446  and  _448
REMARK  178  A    between atoms: _448  and  _449
REMARK  179  A    between atoms: _448  and  _451
REMARK  180  A    between atoms: _451  and  _452
REMARK  181  A    between atoms: _455  and  _457
REMARK  182  A    between atoms: _457  and  _458
REMARK  183  A    between atoms: _457  and  _460
REMARK  184  A    between atoms: _460  and  _461
REMARK  185  A    between atoms: _464  and  _466
REMARK  186  A    between atoms: _470  and  _472
REMARK  187  A    between atoms: _477  and  _480
REMARK  188  A    between atoms: _480  and  _481
REMARK  189  A    between atoms: _481  and  _482
REMARK  190  A    between atoms: _482  and  _483
REMARK  191  A    between atoms: _483  and  _484
REMARK  192  A    between atoms: _490  and  _493
REMARK  193  A    between atoms: _491  and  _497
REMARK  194  A    between atoms: _493  and  _494
REMARK  195  A    between atoms: _497  and  _499
REMARK  196  A    between atoms: _499  and  _500
REMARK  197  A    between atoms: _499  and  _502
REMARK  198  A    between atoms: _502  and  _503
REMARK  199  A    between atoms: _506  and  _508
REMARK  200  A    between atoms: _508  and  _509
REMARK  201  A    between atoms: _508  and  _511
REMARK  202  A    between atoms: _511  and  _512
REMARK  203  A    between atoms: _515  and  _517
REMARK  204  A    between atoms: _517  and  _518
REMARK  205  A    between atoms: _517  and  _520
REMARK  206  A    between atoms: _520  and  _521
REMARK  207  A    between atoms: _524  and  _526
REMARK  208  A    between atoms: _526  and  _527
REMARK  209  A    between atoms: _529  and  _531
REMARK  210  A    between atoms: _531  and  _532
REMARK  211  A    between atoms: _531  and  _534
REMARK  212  A    between atoms: _534  and  _535
REMARK  213  A    between atoms: _538  and  _540
REMARK  214  A    between atoms: _540  and  _541
REMARK  215  A    between atoms: _540  and  _543
REMARK  216  A    between atoms: _543  and  _544
REMARK  217  A    between atoms: _550  and  _552
REMARK  218  A    between atoms: _552  and  _553
REMARK  219  A    between atoms: _552  and  _555
REMARK  220  A    between atoms: _555  and  _556
REMARK  221  A    between atoms: _559  and  _561
REMARK  222  A    between atoms: _561  and  _562
REMARK  223  A    between atoms: _561  and  _564
REMARK  224  A    between atoms: _564  and  _565
REMARK  225  A    between atoms: _568  and  _570
REMARK  226  A    between atoms: _570  and  _571
REMARK  227  A    between atoms: _573  and  _575
REMARK  228  A    between atoms: _575  and  _576
REMARK  229  A    between atoms: _575  and  _578
REMARK  230  A    between atoms: _578  and  _579
REMARK  231  A    between atoms: _581  and  _583
REMARK  232  A    between atoms: _583  and  _584
REMARK  233  A    between atoms: _583  and  _586
REMARK  234  A    between atoms: _586  and  _587
REMARK  235  A    between atoms: _592  and  _594
REMARK  236  A    between atoms: _594  and  _595
REMARK  237  A    between atoms: _594  and  _597
REMARK  238  A    between atoms: _600  and  _602
REMARK  239  A    between atoms: _602  and  _603
REMARK  240  A    between atoms: _602  and  _605
REMARK  241  A    between atoms: _605  and  _606
REMARK  242  A    between atoms: _611  and  _613
REMARK  243  A    between atoms: _613  and  _614
REMARK  244  A    between atoms: _616  and  _618
REMARK  245  A    between atoms: _618  and  _619
REMARK  246  A    between atoms: _618  and  _621
REMARK  247  A    between atoms: _621  and  _622
REMARK  248  A    between atoms: _627  and  _629
REMARK  249  A    between atoms: _629  and  _630
REMARK                            x       y       z     vdW  Elec       q    Type
REMARK                         _______ _______ _______ _____ _____    ______ ____
ROOT
ATOM      1  C   SER A   1      24.418  69.488  33.846  0.00  0.00    +0.241 C 
ATOM      2  O   SER A   1      24.152  69.665  35.044  0.00  0.00    -0.274 OA
ATOM      3  N   ASN A   2      24.193  68.341  33.204  0.00  0.00    -0.298 N 
ATOM      4  H   ASN A   2      24.393  68.282  32.185  0.00  0.00    +0.150 HD
ENDROOT
BRANCH   1   5
ATOM      5  CA  SER A   1      24.947  70.598  32.948  0.00  0.00    +0.174 C 
BRANCH   5   6
ATOM      6  N   SER A   1      25.826  70.114  31.901  0.00  0.00    -0.236 NA
ATOM      7  H   SER A   1      25.400  69.793  31.009  0.00  0.00    +0.142 HD
ENDBRANCH   5   6
BRANCH   5   8
ATOM      8  CB  SER A   1      23.770  71.309  32.330  0.00  0.00    +0.163 C 
BRANCH   8   9
ATOM      9  OG  SER A   1      24.237  72.135  31.279  0.00  0.00    -0.380 OA
ATOM     10  H   SER A   1      23.471  72.607  30.866  0.00  0.00    +0.211 HD
ENDBRANCH   8   9
ENDBRANCH   5   8
ENDBRANCH   1   5
BRANCH   3  11
ATOM     11  CA  ASN A   2      23.677  67.174  33.892  0.00  0.00    +0.146 C 
BRANCH  11  12
ATOM     12  C   ASN A   2      24.799  66.389  34.522  0.00  0.00    +0.227 C 
ATOM     13  O   ASN A   2      24.492  65.585  35.391  0.00  0.00    -0.286 OA
ENDBRANCH  11  12
BRANCH  11  14
ATOM     14  CB  ASN A   2      22.928  66.234  32.942  0.00  0.00    +0.112 C 
BRANCH  14  15
ATOM     15  CG  ASN A   2      21.613  66.749  32.395  0.00  0.00    +0.222 C 
ATOM     16  OD1 ASN A   2      20.886  67.549  33.005  0.00  0.00    -0.275 OA
ATOM     17  ND2 ASN A   2      21.312  66.317  31.193  0.00  0.00    -0.329 N 
ATOM     18 HD21 ASN A   2      20.443  66.645  30.725  0.00  0.00    +0.145 HD
ATOM     19 HD22 ASN A   2      21.942  65.647  30.708  0.00  0.00    +0.145 HD
ENDBRANCH  14  15
ENDBRANCH  11  14
ENDBRANCH   3  11
TORSDOF 8
REMARK  Name = ../refined-set-2016/1tkb/1tkb_pocket.pdb
REMARK  249 active torsions:
REMARK  status: ('A' for Active; 'I' for Inactive)
REMARK    1  A    between atoms: _1  and  _3
REMARK    2  A    between atoms: _3  and  _4
REMARK    3  A    between atoms: _3  and  _6
REMARK    4  A    between atoms: _6  and  _7
REMARK    5  A    between atoms: _9  and  _11
REMARK    6  A    between atoms: _11  and  _12
REMARK    7  A    between atoms: _15  and  _17
REMARK    8  A    between atoms: _17  and  _18
REMARK    9  A    between atoms: _17  and  _20
REMARK   10  A    between atoms: _20  and  _21
REMARK   11  A    between atoms: _24  and  _26
REMARK   12  A    between atoms: _26  and  _27
REMARK   13  A    between atoms: _26  and  _29
REMARK   14  A    between atoms: _29  and  _30
REMARK   15  A    between atoms: _33  and  _35
REMARK   16  A    between atoms: _35  and  _36
REMARK   17  A    between atoms: _35  and  _38
REMARK   18  A    between atoms: _38  and  _39
REMARK   19  A    between atoms: _42  and  _44
REMARK   20  A    between atoms: _44  and  _45
REMARK   21  A    between atoms: _44  and  _47
REMARK   22  A    between atoms: _47  and  _48
REMARK   23  A    between atoms: _50  and  _52
REMARK   24  A    between atoms: _52  and  _53
REMARK   25  A    between atoms: _52  and  _55
REMARK   26  A    between atoms: _55  and  _56
REMARK   27  A    between atoms: _61  and  _63
REMARK   28  A    between atoms: _63  and  _64
REMARK   29  A    between atoms: _66  and  _68
REMARK   30  A    between atoms: _68  and  _69
REMARK   31  A    between atoms: _68  and  _71
REMARK   32  A    between atoms: _71  and  _72
REMARK   33  A    between atoms: _75  and  _77
REMARK   34  A    between atoms: _77  and  _78
REMARK   35  A    between atoms: _77  and  _80
REMARK   36  A    between atoms: _80  and  _81
REMARK   37  A    between atoms: _81  and  _82
REMARK   38  A    between atoms: _82  and  _83
REMARK   39  A    between atoms: _92  and  _94
REMARK   40  A    between atoms: _94  and  _95
REMARK   41  A    between atoms: _94  and  _97
REMARK   42  A    between atoms: _97  and  _98
REMARK   43  A    between atoms: _98  and  _99
REMARK   44  A    between atoms: _102  and  _104
REMARK   45  A    between atoms: _104  and  _105
REMARK   46  A    between atoms: _104  and  _107
REMARK   47  A    between atoms: _107  and  _108
REMARK   48  A    between atoms: _113  and  _115
REMARK   49  A    between atoms: _115  and  _116
REMARK   50  A    between atoms: _115  and  _118
REMARK   51  A    between atoms: _118  and  _119
REMARK   52  A    between atoms: _122  and  _124
REMARK   53  A    between atoms: _124  and  _125
REMARK   54  A    between atoms: _124  and  _127
REMARK   55  A    between atoms: _127  and  _128
REMARK   56  A    between atoms: _134  and  _136
REMARK   57  A    between atoms: _136  and  _137
REMARK   58  A    between atoms: _136  and  _139
REMARK   59  A    between atoms: _139  and  _140
REMARK   60  A    between atoms: _145  and  _147
REMARK   61  A    between atoms: _147  and  _148
REMARK   62  A    between atoms: _147  and  _150
REMARK   63  A    between atoms: _150  and  _151
REMARK   64  A    between atoms: _157  and  _159
REMARK   65  A    between atoms: _159  and  _160
REMARK   66  A    between atoms: _159  and  _162
REMARK   67  A    between atoms: _165  and  _167
REMARK   68  A    between atoms: _167  and  _168
REMARK   69  A    between atoms: _167  and  _170
REMARK   70  A    between atoms: _170  and  _171
REMARK   71  A    between atoms: _176  and  _177
REMARK   72  A    between atoms: _179  and  _181
REMARK   73  A    between atoms: _181  and  _182
REMARK   74  A    between atoms: _181  and  _184
REMARK   75  A    between atoms: _184  and  _185
REMARK   76  A    between atoms: _188  and  _190
REMARK   77  A    between atoms: _190  and  _191
REMARK   78  A    between atoms: _190  and  _193
REMARK   79  A    between atoms: _193  and  _194
REMARK   80  A    between atoms: _197  and  _199
REMARK   81  A    between atoms: _199  and  _200
REMARK   82  A    between atoms: _199  and  _202
REMARK   83  A    between atoms: _202  and  _203
REMARK   84  A    between atoms: _208  and  _210
REMARK   85  A    between atoms: _210  and  _211
REMARK   86  A    between atoms: _210  and  _213
REMARK   87  A    between atoms: _213  and  _214
REMARK   88  A    between atoms: _220  and  _221
REMARK   89  A    between atoms: _226  and  _228
REMARK   90  A    between atoms: _228  and  _229
REMARK   91  A    between atoms: _231  and  _233
REMARK   92  A    between atoms: _233  and  _234
REMARK   93  A    between atoms: _238  and  _239
REMARK   94  A    between atoms: _244  and  _246
REMARK   95  A    between atoms: _246  and  _247
REMARK   96  A    between atoms: _249  and  _251
REMARK   97  A    between atoms: _251  and  _252
REMARK   98  A    between atoms: _251  and  _254
REMARK   99  A    between atoms: _254  and  _255
REMARK  100  A    between atoms: _255  and  _256
REMARK  101  A    between atoms: _258  and  _260
REMARK  102  A    between atoms: _260  and  _261
REMARK  103  A    between atoms: _260  and  _263
REMARK  104  A    between atoms: _263  and  _264
REMARK  105  A    between atoms: _266  and  _268
REMARK  106  A    between atoms: _268  and  _269
REMARK  107  A    between atoms: _268  and  _271
REMARK  108  A    between atoms: _271  and  _272
REMARK  109  A    between atoms: _277  and  _279
REMARK  110  A    between atoms: _279  and  _280
REMARK  111  A    between atoms: _282  and  _284
REMARK  112  A    between atoms: _284  and  _285
REMARK  113  A    between atoms: _284  and  _287
REMARK  114  A    between atoms: _287  and  _288
REMARK  115  A    between atoms: _293  and  _295
REMARK  116  A    between atoms: _295  and  _296
REMARK  117  A    between atoms: _299  and  _301
REMARK  118  A    between atoms: _301  and  _302
REMARK  119  A    between atoms: _301  and  _304
REMARK  120  A    between atoms: _304  and  _305
REMARK  121  A    between atoms: _310  and  _312
REMARK  122  A    between atoms: _312  and  _313
REMARK  123  A    between atoms: _312  and  _315
REMARK  124  A    between atoms: _315  and  _316
REMARK  125  A    between atoms: _319  and  _321
REMARK  126  A    between atoms: _321  and  _322
REMARK  127  A    between atoms: _325  and  _326
REMARK  128  A    between atoms: _331  and  _333
REMARK  129  A    between atoms: _333  and  _334
REMARK  130  A    between atoms: _333  and  _336
REMARK  131  A    between atoms: _336  and  _337
REMARK  132  A    between atoms: _340  and  _342
REMARK  133  A    between atoms: _342  and  _343
REMARK  134  A    between atoms: _345  and  _347
REMARK  135  A    between atoms: _347  and  _348
REMARK  136  A    between atoms: _347  and  _350
REMARK  137  A    between atoms: _350  and  _351
REMARK  138  A    between atoms: _351  and  _352
REMARK  139  A    between atoms: _357  and  _359
REMARK  140  A    between atoms: _359  and  _360
REMARK  141  A    between atoms: _359  and  _362
REMARK  142  A    between atoms: _362  and  _363
REMARK  143  A    between atoms: _366  and  _368
REMARK  144  A    between atoms: _368  and  _369
REMARK  145  A    between atoms: _371  and  _373
REMARK  146  A    between atoms: _373  and  _374
REMARK  147  A    between atoms: _373  and  _376
REMARK  148  A    between atoms: _376  and  _377
REMARK  149  A    between atoms: _380  and  _382
REMARK  150  A    between atoms: _382  and  _383
REMARK  151  A    between atoms: _385  and  _387
REMARK  152  A    between atoms: _387  and  _388
REMARK  153  A    between atoms: _387  and  _390
REMARK  154  A    between atoms: _392  and  _394
REMARK  155  A    between atoms: _394  and  _395
REMARK  156  A    between atoms: _394  and  _397
REMARK  157  A    between atoms: _397  and  _398
REMARK  158  A    between atoms: _401  and  _403
REMARK  159  A    between atoms: _403  and  _404
REMARK  160  A    between atoms: _403  and  _406
REMARK  161  A    between atoms: _406  and  _407
REMARK  162  A    between atoms: _407  and  _408
REMARK  163  A    between atoms: _413  and  _415
REMARK  164  A    between atoms: _415  and  _416
REMARK  165  A    between atoms: _415  and  _418
REMARK  166  A    between atoms: _418  and  _419
REMARK  167  A    between atoms: _419  and  _420
REMARK  168  A    between atoms: _423  and  _425
REMARK  169  A    between atoms: _425  and  _426
REMARK  170  A    between atoms: _425  and  _428
REMARK  171  A    between atoms: _428  and  _429
REMARK  172  A    between atoms: _432  and  _434
REMARK  173  A    between atoms: _434  and  _435
REMARK  174  A    between atoms: _434  and  _437
REMARK  175  A    between atoms: _437  and  _438
REMARK  176  A    between atoms: _443  and  _444
REMARK  177  A    between atoms: _446  and  _448
REMARK  178  A    between atoms: _448  and  _449
REMARK  179  A    between atoms: _448  and  _451
REMARK  180  A    between atoms: _451  and  _452
REMARK  181  A    between atoms: _455  and  _457
REMARK  182  A    between atoms: _457  and  _458
REMARK  183  A    between atoms: _457  and  _460
REMARK  184  A    between atoms: _460  and  _461
REMARK  185  A    between atoms: _464  and  _466
REMARK  186  A    between atoms: _470  and  _472
REMARK  187  A    between atoms: _477  and  _480
REMARK  188  A    between atoms: _480  and  _481
REMARK  189  A    between atoms: _481  and  _482
REMARK  190  A    between atoms: _482  and  _483
REMARK  191  A    between atoms: _483  and  _484
REMARK  192  A    between atoms: _490  and  _493
REMARK  193  A    between atoms: _491  and  _497
REMARK  194  A    between atoms: _493  and  _494
REMARK  195  A    between atoms: _497  and  _499
REMARK  196  A    between atoms: _499  and  _500
REMARK  197  A    between atoms: _499  and  _502
REMARK  198  A    between atoms: _502  and  _503
REMARK  199  A    between atoms: _506  and  _508
REMARK  200  A    between atoms: _508  and  _509
REMARK  201  A    between atoms: _508  and  _511
REMARK  202  A    between atoms: _511  and  _512
REMARK  203  A    between atoms: _515  and  _517
REMARK  204  A    between atoms: _517  and  _518
REMARK  205  A    between atoms: _517  and  _520
REMARK  206  A    between atoms: _520  and  _521
REMARK  207  A    between atoms: _524  and  _526
REMARK  208  A    between atoms: _526  and  _527
REMARK  209  A    between atoms: _529  and  _531
REMARK  210  A    between atoms: _531  and  _532
REMARK  211  A    between atoms: _531  and  _534
REMARK  212  A    between atoms: _534  and  _535
REMARK  213  A    between atoms: _538  and  _540
REMARK  214  A    between atoms: _540  and  _541
REMARK  215  A    between atoms: _540  and  _543
REMARK  216  A    between atoms: _543  and  _544
REMARK  217  A    between atoms: _550  and  _552
REMARK  218  A    between atoms: _552  and  _553
REMARK  219  A    between atoms: _552  and  _555
REMARK  220  A    between atoms: _555  and  _556
REMARK  221  A    between atoms: _559  and  _561
REMARK  222  A    between atoms: _561  and  _562
REMARK  223  A    between atoms: _561  and  _564
REMARK  224  A    between atoms: _564  and  _565
REMARK  225  A    between atoms: _568  and  _570
REMARK  226  A    between atoms: _570  and  _571
REMARK  227  A    between atoms: _573  and  _575
REMARK  228  A    between atoms: _575  and  _576
REMARK  229  A    between atoms: _575  and  _578
REMARK  230  A    between atoms: _578  and  _579
REMARK  231  A    between atoms: _581  and  _583
REMARK  232  A    between atoms: _583  and  _584
REMARK  233  A    between atoms: _583  and  _586
REMARK  234  A    between atoms: _586  and  _587
REMARK  235  A    between atoms: _592  and  _594
REMARK  236  A    between atoms: _594  and  _595
REMARK  237  A    between atoms: _594  and  _597
REMARK  238  A    between atoms: _600  and  _602
REMARK  239  A    between atoms: _602  and  _603
REMARK  240  A    between atoms: _602  and  _605
REMARK  241  A    between atoms: _605  and  _606
REMARK  242  A    between atoms: _611  and  _613
REMARK  243  A    between atoms: _613  and  _614
REMARK  244  A    between atoms: _616  and  _618
REMARK  245  A    between atoms: _618  and  _619
REMARK  246  A    between atoms: _618  and  _621
REMARK  247  A    between atoms: _621  and  _622
REMARK  248  A    between atoms: _627  and  _629
REMARK  249  A    between atoms: _629  and  _630
REMARK                            x       y       z     vdW  Elec       q    Type
REMARK                         _______ _______ _______ _____ _____    ______ ____
ROOT
ATOM      1  CA  ARG A   3      15.048  65.334  21.760  0.00  0.00    +0.149 C 
ENDROOT
BRANCH   1   3
ATOM      2  C   ILE A   2      16.150  67.489  21.558  0.00  0.00    +0.241 C 
ATOM      3  N   ARG A   3      16.130  66.264  22.070  0.00  0.00    -0.297 N 
ATOM      4  H   ARG A   3      16.898  65.962  22.703  0.00  0.00    +0.150 HD
ATOM      5  O   ILE A   2      15.191  67.974  20.934  0.00  0.00    -0.273 OA
BRANCH   2   6
ATOM      6  CA  ILE A   2      17.446  68.220  21.851  0.00  0.00    +0.148 C 
BRANCH   6   9
ATOM      7  C   GLY A   1      19.233  66.700  21.499  0.00  0.00    +0.240 C 
ATOM      8  O   GLY A   1      18.989  66.262  22.617  0.00  0.00    -0.274 OA
ATOM      9  N   ILE A   2      18.469  67.638  21.015  0.00  0.00    -0.297 N 
ATOM     10  H   ILE A   2      18.595  67.964  20.036  0.00  0.00    +0.150 HD
BRANCH   7  11
ATOM     11  CA  GLY A   1      20.399  66.151  20.715  0.00  0.00    +0.169 C 
BRANCH  11  12
ATOM     12  N   GLY A   1      20.848  64.929  21.350  0.00  0.00    -0.236 NA
ATOM     13  H   GLY A   1      21.762  64.892  21.844  0.00  0.00    +0.142 HD
ENDBRANCH  11  12
ENDBRANCH   7  11
ENDBRANCH   6   9
BRANCH   6  14
ATOM     14  CB  ILE A   2      17.404  69.735  21.542  0.00  0.00    +0.027 C 
ATOM     15  CG2 ILE A   2      16.407  70.410  22.422  0.00  0.00    +0.002 C 
BRANCH  14  16
ATOM     16  CG1 ILE A   2      18.736  70.396  21.886  0.00  0.00    +0.002 C 
ATOM     17  CD1 ILE A   2      19.526  70.816  20.620  0.00  0.00    +0.000 C 
ENDBRANCH  14  16
ENDBRANCH   6  14
ENDBRANCH   2   6
ENDBRANCH   1   3
BRANCH   1  18
ATOM     18  C   ARG A   3      14.600  64.620  23.020  0.00  0.00    +0.241 C 
ATOM     19  N   GLU A   4      13.856  65.293  23.904  0.00  0.00    -0.297 N 
ATOM     20  H   GLU A   4      13.542  66.263  23.698  0.00  0.00    +0.150 HD
ATOM     21  O   ARG A   3      14.862  63.428  23.216  0.00  0.00    -0.273 OA
BRANCH  19  22
ATOM     22  CA  GLU A   4      13.493  64.652  25.154  0.00  0.00    +0.149 C 
BRANCH  22  23
ATOM     23  C   GLU A   4      12.523  63.533  24.975  0.00  0.00    +0.241 C 
ATOM     24  O   GLU A   4      12.782  62.418  25.434  0.00  0.00    -0.273 OA
ATOM     25  N   HIS A   5      11.439  63.795  24.242  0.00  0.00    -0.298 N 
ATOM     26  H   HIS A   5      11.351  64.694  23.726  0.00  0.00    +0.150 HD
BRANCH  25  27
ATOM     27  CA  HIS A   5      10.391  62.805  24.181  0.00  0.00    +0.143 C 
BRANCH  27  28
ATOM     28  C   HIS A   5      10.890  61.593  23.488  0.00  0.00    +0.227 C 
ATOM     29  O   HIS A   5      10.510  60.510  23.915  0.00  0.00    -0.286 OA
ENDBRANCH  27  28
BRANCH  27  30
ATOM     30  CB  HIS A   5       9.145  63.328  23.468  0.00  0.00    +0.075 C 
BRANCH  30  31
ATOM     31  CG  HIS A   5       7.848  62.538  23.727  0.00  0.00    +0.082 A 
ATOM     32  CD2 HIS A   5       7.694  61.391  24.467  0.00  0.00    +0.115 A 
ATOM     33  NE2 HIS A   5       6.432  61.027  24.354  0.00  0.00    -0.221 NA
ATOM     34  CE1 HIS A   5       5.776  61.877  23.600  0.00  0.00    +0.199 A 
ATOM     35  ND1 HIS A   5       6.644  62.797  23.229  0.00  0.00    -0.227 NA
ENDBRANCH  30  31
ENDBRANCH  27  30
ENDBRANCH  25  27
ENDBRANCH  22  23
BRANCH  22  36
ATOM     36  CB  GLU A   4      12.846  65.578  26.174  0.00  0.00    +0.041 C 
BRANCH  36  37
ATOM     37  CG  GLU A   4      13.839  66.593  26.726  0.00  0.00    +0.116 C 
BRANCH  37  38
ATOM     38  CD  GLU A   4      14.115  67.773  25.778  0.00  0.00    +0.365 C 
ATOM     39  OE2 GLU A   4      15.261  68.278  25.722  0.00  0.00    -0.246 OA
ATOM     40  OE1 GLU A   4      13.151  68.181  25.114  0.00  0.00    -0.246 OA
ENDBRANCH  37  38
ENDBRANCH  36  37
ENDBRANCH  22  36
ENDBRANCH  19  22
ENDBRANCH   1  18
BRANCH   1  41
ATOM     41  CB  ARG A   3      15.560  64.334  20.659  0.00  0.00    +0.033 C 
BRANCH  41  42
ATOM     42  CG  ARG A   3      15.644  65.012  19.303  0.00  0.00    +0.045 C 
BRANCH  42  43
ATOM     43  CD  ARG A   3      16.157  64.204  18.114  0.00  0.00    +0.174 C 
BRANCH  43  44
ATOM     44  NE  ARG A   3      17.593  64.130  18.160  0.00  0.00    -0.265 N 
ATOM     45  HE  ARG A   3      18.038  63.799  19.040  0.00  0.00    +0.259 HD
ATOM     46  CZ  ARG A   3      18.382  64.459  17.146  0.00  0.00    +0.342 C 
ATOM     47  NH2 ARG A   3      19.700  64.325  17.282  0.00  0.00    -0.292 N 
ATOM     48 HH21 ARG A   3      20.097  63.967  18.174  0.00  0.00    +0.255 HD
ATOM     49 HH22 ARG A   3      20.332  64.579  16.496  0.00  0.00    +0.255 HD
ATOM     50  NH1 ARG A   3      17.904  64.878  15.996  0.00  0.00    -0.292 N 
ATOM     51 HH11 ARG A   3      16.876  64.960  15.859  0.00  0.00    +0.255 HD
ATOM     52 HH12 ARG A   3      18.553  65.127  15.223  0.00  0.00    +0.255 HD
ENDBRANCH  43  44
ENDBRANCH  42  43
ENDBRANCH  41  42
ENDBRANCH   1  41
TORSDOF 21
REMARK  Name = ../refined-set-2016/1tkb/1tkb_pocket.pdb
REMARK  249 active torsions:
REMARK  status: ('A' for Active; 'I' for Inactive)
REMARK    1  A    between atoms: _1  and  _3
REMARK    2  A    between atoms: _3  and  _4
REMARK    3  A    between atoms: _3  and  _6
REMARK    4  A    between atoms: _6  and  _7
REMARK    5  A    between atoms: _9  and  _11
REMARK    6  A    between atoms: _11  and  _12
REMARK    7  A    between atoms: _15  and  _17
REMARK    8  A    between atoms: _17  and  _18
REMARK    9  A    between atoms: _17  and  _20
REMARK   10  A    between atoms: _20  and  _21
REMARK   11  A    between atoms: _24  and  _26
REMARK   12  A    between atoms: _26  and  _27
REMARK   13  A    between atoms: _26  and  _29
REMARK   14  A    between atoms: _29  and  _30
REMARK   15  A    between atoms: _33  and  _35
REMARK   16  A    between atoms: _35  and  _36
REMARK   17  A    between atoms: _35  and  _38
REMARK   18  A    between atoms: _38  and  _39
REMARK   19  A    between atoms: _42  and  _44
REMARK   20  A    between atoms: _44  and  _45
REMARK   21  A    between atoms: _44  and  _47
REMARK   22  A    between atoms: _47  and  _48
REMARK   23  A    between atoms: _50  and  _52
REMARK   24  A    between atoms: _52  and  _53
REMARK   25  A    between atoms: _52  and  _55
REMARK   26  A    between atoms: _55  and  _56
REMARK   27  A    between atoms: _61  and  _63
REMARK   28  A    between atoms: _63  and  _64
REMARK   29  A    between atoms: _66  and  _68
REMARK   30  A    between atoms: _68  and  _69
REMARK   31  A    between atoms: _68  and  _71
REMARK   32  A    between atoms: _71  and  _72
REMARK   33  A    between atoms: _75  and  _77
REMARK   34  A    between atoms: _77  and  _78
REMARK   35  A    between atoms: _77  and  _80
REMARK   36  A    between atoms: _80  and  _81
REMARK   37  A    between atoms: _81  and  _82
REMARK   38  A    between atoms: _82  and  _83
REMARK   39  A    between atoms: _92  and  _94
REMARK   40  A    between atoms: _94  and  _95
REMARK   41  A    between atoms: _94  and  _97
REMARK   42  A    between atoms: _97  and  _98
REMARK   43  A    between atoms: _98  and  _99
REMARK   44  A    between atoms: _102  and  _104
REMARK   45  A    between atoms: _104  and  _105
REMARK   46  A    between atoms: _104  and  _107
REMARK   47  A    between atoms: _107  and  _108
REMARK   48  A    between atoms: _113  and  _115
REMARK   49  A    between atoms: _115  and  _116
REMARK   50  A    between atoms: _115  and  _118
REMARK   51  A    between atoms: _118  and  _119
REMARK   52  A    between atoms: _122  and  _124
REMARK   53  A    between atoms: _124  and  _125
REMARK   54  A    between atoms: _124  and  _127
REMARK   55  A    between atoms: _127  and  _128
REMARK   56  A    between atoms: _134  and  _136
REMARK   57  A    between atoms: _136  and  _137
REMARK   58  A    between atoms: _136  and  _139
REMARK   59  A    between atoms: _139  and  _140
REMARK   60  A    between atoms: _145  and  _147
REMARK   61  A    between atoms: _147  and  _148
REMARK   62  A    between atoms: _147  and  _150
REMARK   63  A    between atoms: _150  and  _151
REMARK   64  A    between atoms: _157  and  _159
REMARK   65  A    between atoms: _159  and  _160
REMARK   66  A    between atoms: _159  and  _162
REMARK   67  A    between atoms: _165  and  _167
REMARK   68  A    between atoms: _167  and  _168
REMARK   69  A    between atoms: _167  and  _170
REMARK   70  A    between atoms: _170  and  _171
REMARK   71  A    between atoms: _176  and  _177
REMARK   72  A    between atoms: _179  and  _181
REMARK   73  A    between atoms: _181  and  _182
REMARK   74  A    between atoms: _181  and  _184
REMARK   75  A    between atoms: _184  and  _185
REMARK   76  A    between atoms: _188  and  _190
REMARK   77  A    between atoms: _190  and  _191
REMARK   78  A    between atoms: _190  and  _193
REMARK   79  A    between atoms: _193  and  _194
REMARK   80  A    between atoms: _197  and  _199
REMARK   81  A    between atoms: _199  and  _200
REMARK   82  A    between atoms: _199  and  _202
REMARK   83  A    between atoms: _202  and  _203
REMARK   84  A    between atoms: _208  and  _210
REMARK   85  A    between atoms: _210  and  _211
REMARK   86  A    between atoms: _210  and  _213
REMARK   87  A    between atoms: _213  and  _214
REMARK   88  A    between atoms: _220  and  _221
REMARK   89  A    between atoms: _226  and  _228
REMARK   90  A    between atoms: _228  and  _229
REMARK   91  A    between atoms: _231  and  _233
REMARK   92  A    between atoms: _233  and  _234
REMARK   93  A    between atoms: _238  and  _239
REMARK   94  A    between atoms: _244  and  _246
REMARK   95  A    between atoms: _246  and  _247
REMARK   96  A    between atoms: _249  and  _251
REMARK   97  A    between atoms: _251  and  _252
REMARK   98  A    between atoms: _251  and  _254
REMARK   99  A    between atoms: _254  and  _255
REMARK  100  A    between atoms: _255  and  _256
REMARK  101  A    between atoms: _258  and  _260
REMARK  102  A    between atoms: _260  and  _261
REMARK  103  A    between atoms: _260  and  _263
REMARK  104  A    between atoms: _263  and  _264
REMARK  105  A    between atoms: _266  and  _268
REMARK  106  A    between atoms: _268  and  _269
REMARK  107  A    between atoms: _268  and  _271
REMARK  108  A    between atoms: _271  and  _272
REMARK  109  A    between atoms: _277  and  _279
REMARK  110  A    between atoms: _279  and  _280
REMARK  111  A    between atoms: _282  and  _284
REMARK  112  A    between atoms: _284  and  _285
REMARK  113  A    between atoms: _284  and  _287
REMARK  114  A    between atoms: _287  and  _288
REMARK  115  A    between atoms: _293  and  _295
REMARK  116  A    between atoms: _295  and  _296
REMARK  117  A    between atoms: _299  and  _301
REMARK  118  A    between atoms: _301  and  _302
REMARK  119  A    between atoms: _301  and  _304
REMARK  120  A    between atoms: _304  and  _305
REMARK  121  A    between atoms: _310  and  _312
REMARK  122  A    between atoms: _312  and  _313
REMARK  123  A    between atoms: _312  and  _315
REMARK  124  A    between atoms: _315  and  _316
REMARK  125  A    between atoms: _319  and  _321
REMARK  126  A    between atoms: _321  and  _322
REMARK  127  A    between atoms: _325  and  _326
REMARK  128  A    between atoms: _331  and  _333
REMARK  129  A    between atoms: _333  and  _334
REMARK  130  A    between atoms: _333  and  _336
REMARK  131  A    between atoms: _336  and  _337
REMARK  132  A    between atoms: _340  and  _342
REMARK  133  A    between atoms: _342  and  _343
REMARK  134  A    between atoms: _345  and  _347
REMARK  135  A    between atoms: _347  and  _348
REMARK  136  A    between atoms: _347  and  _350
REMARK  137  A    between atoms: _350  and  _351
REMARK  138  A    between atoms: _351  and  _352
REMARK  139  A    between atoms: _357  and  _359
REMARK  140  A    between atoms: _359  and  _360
REMARK  141  A    between atoms: _359  and  _362
REMARK  142  A    between atoms: _362  and  _363
REMARK  143  A    between atoms: _366  and  _368
REMARK  144  A    between atoms: _368  and  _369
REMARK  145  A    between atoms: _371  and  _373
REMARK  146  A    between atoms: _373  and  _374
REMARK  147  A    between atoms: _373  and  _376
REMARK  148  A    between atoms: _376  and  _377
REMARK  149  A    between atoms: _380  and  _382
REMARK  150  A    between atoms: _382  and  _383
REMARK  151  A    between atoms: _385  and  _387
REMARK  152  A    between atoms: _387  and  _388
REMARK  153  A    between atoms: _387  and  _390
REMARK  154  A    between atoms: _392  and  _394
REMARK  155  A    between atoms: _394  and  _395
REMARK  156  A    between atoms: _394  and  _397
REMARK  157  A    between atoms: _397  and  _398
REMARK  158  A    between atoms: _401  and  _403
REMARK  159  A    between atoms: _403  and  _404
REMARK  160  A    between atoms: _403  and  _406
REMARK  161  A    between atoms: _406  and  _407
REMARK  162  A    between atoms: _407  and  _408
REMARK  163  A    between atoms: _413  and  _415
REMARK  164  A    between atoms: _415  and  _416
REMARK  165  A    between atoms: _415  and  _418
REMARK  166  A    between atoms: _418  and  _419
REMARK  167  A    between atoms: _419  and  _420
REMARK  168  A    between atoms: _423  and  _425
REMARK  169  A    between atoms: _425  and  _426
REMARK  170  A    between atoms: _425  and  _428
REMARK  171  A    between atoms: _428  and  _429
REMARK  172  A    between atoms: _432  and  _434
REMARK  173  A    between atoms: _434  and  _435
REMARK  174  A    between atoms: _434  and  _437
REMARK  175  A    between atoms: _437  and  _438
REMARK  176  A    between atoms: _443  and  _444
REMARK  177  A    between atoms: _446  and  _448
REMARK  178  A    between atoms: _448  and  _449
REMARK  179  A    between atoms: _448  and  _451
REMARK  180  A    between atoms: _451  and  _452
REMARK  181  A    between atoms: _455  and  _457
REMARK  182  A    between atoms: _457  and  _458
REMARK  183  A    between atoms: _457  and  _460
REMARK  184  A    between atoms: _460  and  _461
REMARK  185  A    between atoms: _464  and  _466
REMARK  186  A    between atoms: _470  and  _472
REMARK  187  A    between atoms: _477  and  _480
REMARK  188  A    between atoms: _480  and  _481
REMARK  189  A    between atoms: _481  and  _482
REMARK  190  A    between atoms: _482  and  _483
REMARK  191  A    between atoms: _483  and  _484
REMARK  192  A    between atoms: _490  and  _493
REMARK  193  A    between atoms: _491  and  _497
REMARK  194  A    between atoms: _493  and  _494
REMARK  195  A    between atoms: _497  and  _499
REMARK  196  A    between atoms: _499  and  _500
REMARK  197  A    between atoms: _499  and  _502
REMARK  198  A    between atoms: _502  and  _503
REMARK  199  A    between atoms: _506  and  _508
REMARK  200  A    between atoms: _508  and  _509
REMARK  201  A    between atoms: _508  and  _511
REMARK  202  A    between atoms: _511  and  _512
REMARK  203  A    between atoms: _515  and  _517
REMARK  204  A    between atoms: _517  and  _518
REMARK  205  A    between atoms: _517  and  _520
REMARK  206  A    between atoms: _520  and  _521
REMARK  207  A    between atoms: _524  and  _526
REMARK  208  A    between atoms: _526  and  _527
REMARK  209  A    between atoms: _529  and  _531
REMARK  210  A    between atoms: _531  and  _532
REMARK  211  A    between atoms: _531  and  _534
REMARK  212  A    between atoms: _534  and  _535
REMARK  213  A    between atoms: _538  and  _540
REMARK  214  A    between atoms: _540  and  _541
REMARK  215  A    between atoms: _540  and  _543
REMARK  216  A    between atoms: _543  and  _544
REMARK  217  A    between atoms: _550  and  _552
REMARK  218  A    between atoms: _552  and  _553
REMARK  219  A    between atoms: _552  and  _555
REMARK  220  A    between atoms: _555  and  _556
REMARK  221  A    between atoms: _559  and  _561
REMARK  222  A    between atoms: _561  and  _562
REMARK  223  A    between atoms: _561  and  _564
REMARK  224  A    between atoms: _564  and  _565
REMARK  225  A    between atoms: _568  and  _570
REMARK  226  A    between atoms: _570  and  _571
REMARK  227  A    between atoms: _573  and  _575
REMARK  228  A    between atoms: _575  and  _576
REMARK  229  A    between atoms: _575  and  _578
REMARK  230  A    between atoms: _578  and  _579
REMARK  231  A    between atoms: _581  and  _583
REMARK  232  A    between atoms: _583  and  _584
REMARK  233  A    between atoms: _583  and  _586
REMARK  234  A    between atoms: _586  and  _587
REMARK  235  A    between atoms: _592  and  _594
REMARK  236  A    between atoms: _594  and  _595
REMARK  237  A    between atoms: _594  and  _597
REMARK  238  A    between atoms: _600  and  _602
REMARK  239  A    between atoms: _602  and  _603
REMARK  240  A    between atoms: _602  and  _605
REMARK  241  A    between atoms: _605  and  _606
REMARK  242  A    between atoms: _611  and  _613
REMARK  243  A    between atoms: _613  and  _614
REMARK  244  A    between atoms: _616  and  _618
REMARK  245  A    between atoms: _618  and  _619
REMARK  246  A    between atoms: _618  and  _621
REMARK  247  A    between atoms: _621  and  _622
REMARK  248  A    between atoms: _627  and  _629
REMARK  249  A    between atoms: _629  and  _630
REMARK                            x       y       z     vdW  Elec       q    Type
REMARK                         _______ _______ _______ _____ _____    ______ ____
ROOT
ATOM      1  C   THR A   1      17.747  67.421  32.367  0.00  0.00    +0.241 C 
ATOM      2  O   THR A   1      18.210  67.084  33.464  0.00  0.00    -0.274 OA
ATOM      3  N   PHE A   2      17.078  68.565  32.231  0.00  0.00    -0.298 N 
ATOM      4  H   PHE A   2      16.834  68.867  31.266  0.00  0.00    +0.150 HD
ENDROOT
BRANCH   1   5
ATOM      5  CA  THR A   1      17.990  66.593  31.088  0.00  0.00    +0.172 C 
BRANCH   5   6
ATOM      6  N   THR A   1      18.479  65.335  31.564  0.00  0.00    -0.236 NA
ATOM      7  H   THR A   1      18.409  65.124  32.580  0.00  0.00    +0.142 HD
ENDBRANCH   5   6
BRANCH   5   8
ATOM      8  CB  THR A   1      16.695  66.396  30.242  0.00  0.00    +0.135 C 
ATOM      9  CG2 THR A   1      15.457  66.053  31.019  0.00  0.00    +0.034 C 
BRANCH   8  10
ATOM     10  OG1 THR A   1      16.455  67.670  29.635  0.00  0.00    -0.383 OA
ATOM     11  HG1 THR A   1      15.639  67.620  29.077  0.00  0.00    +0.210 HD
ENDBRANCH   8  10
ENDBRANCH   5   8
ENDBRANCH   1   5
BRANCH   3  12
ATOM     12  CA  PHE A   2      16.666  69.418  33.320  0.00  0.00    +0.141 C 
BRANCH  12  13
ATOM     13  C   PHE A   2      15.294  68.910  33.724  0.00  0.00    +0.227 C 
ATOM     14  O   PHE A   2      14.439  68.738  32.848  0.00  0.00    -0.286 OA
ENDBRANCH  12  13
BRANCH  12  15
ATOM     15  CB  PHE A   2      16.469  70.821  32.873  0.00  0.00    +0.054 C 
BRANCH  15  16
ATOM     16  CG  PHE A   2      17.687  71.601  32.423  0.00  0.00    -0.020 A 
ATOM     17  CD2 PHE A   2      18.963  71.244  32.866  0.00  0.00    -0.004 A 
ATOM     18  CE2 PHE A   2      20.023  72.041  32.492  0.00  0.00    -0.000 A 
ATOM     19  CZ  PHE A   2      19.800  73.162  31.698  0.00  0.00    -0.000 A 
ATOM     20  CE1 PHE A   2      18.531  73.496  31.262  0.00  0.00    -0.000 A 
ATOM     21  CD1 PHE A   2      17.463  72.718  31.616  0.00  0.00    -0.004 A 
ENDBRANCH  15  16
ENDBRANCH  12  15
ENDBRANCH   3  12
TORSDOF 8
REMARK  Name = ../refined-set-2016/1tkb/1tkb_pocket.pdb
REMARK  249 active torsions:
REMARK  status: ('A' for Active; 'I' for Inactive)
REMARK    1  A    between atoms: _1  and  _3
REMARK    2  A    between atoms: _3  and  _4
REMARK    3  A    between atoms: _3  and  _6
REMARK    4  A    between atoms: _6  and  _7
REMARK    5  A    between atoms: _9  and  _11
REMARK    6  A    between atoms: _11  and  _12
REMARK    7  A    between atoms: _15  and  _17
REMARK    8  A    between atoms: _17  and  _18
REMARK    9  A    between atoms: _17  and  _20
REMARK   10  A    between atoms: _20  and  _21
REMARK   11  A    between atoms: _24  and  _26
REMARK   12  A    between atoms: _26  and  _27
REMARK   13  A    between atoms: _26  and  _29
REMARK   14  A    between atoms: _29  and  _30
REMARK   15  A    between atoms: _33  and  _35
REMARK   16  A    between atoms: _35  and  _36
REMARK   17  A    between atoms: _35  and  _38
REMARK   18  A    between atoms: _38  and  _39
REMARK   19  A    between atoms: _42  and  _44
REMARK   20  A    between atoms: _44  and  _45
REMARK   21  A    between atoms: _44  and  _47
REMARK   22  A    between atoms: _47  and  _48
REMARK   23  A    between atoms: _50  and  _52
REMARK   24  A    between atoms: _52  and  _53
REMARK   25  A    between atoms: _52  and  _55
REMARK   26  A    between atoms: _55  and  _56
REMARK   27  A    between atoms: _61  and  _63
REMARK   28  A    between atoms: _63  and  _64
REMARK   29  A    between atoms: _66  and  _68
REMARK   30  A    between atoms: _68  and  _69
REMARK   31  A    between atoms: _68  and  _71
REMARK   32  A    between atoms: _71  and  _72
REMARK   33  A    between atoms: _75  and  _77
REMARK   34  A    between atoms: _77  and  _78
REMARK   35  A    between atoms: _77  and  _80
REMARK   36  A    between atoms: _80  and  _81
REMARK   37  A    between atoms: _81  and  _82
REMARK   38  A    between atoms: _82  and  _83
REMARK   39  A    between atoms: _92  and  _94
REMARK   40  A    between atoms: _94  and  _95
REMARK   41  A    between atoms: _94  and  _97
REMARK   42  A    between atoms: _97  and  _98
REMARK   43  A    between atoms: _98  and  _99
REMARK   44  A    between atoms: _102  and  _104
REMARK   45  A    between atoms: _104  and  _105
REMARK   46  A    between atoms: _104  and  _107
REMARK   47  A    between atoms: _107  and  _108
REMARK   48  A    between atoms: _113  and  _115
REMARK   49  A    between atoms: _115  and  _116
REMARK   50  A    between atoms: _115  and  _118
REMARK   51  A    between atoms: _118  and  _119
REMARK   52  A    between atoms: _122  and  _124
REMARK   53  A    between atoms: _124  and  _125
REMARK   54  A    between atoms: _124  and  _127
REMARK   55  A    between atoms: _127  and  _128
REMARK   56  A    between atoms: _134  and  _136
REMARK   57  A    between atoms: _136  and  _137
REMARK   58  A    between atoms: _136  and  _139
REMARK   59  A    between atoms: _139  and  _140
REMARK   60  A    between atoms: _145  and  _147
REMARK   61  A    between atoms: _147  and  _148
REMARK   62  A    between atoms: _147  and  _150
REMARK   63  A    between atoms: _150  and  _151
REMARK   64  A    between atoms: _157  and  _159
REMARK   65  A    between atoms: _159  and  _160
REMARK   66  A    between atoms: _159  and  _162
REMARK   67  A    between atoms: _165  and  _167
REMARK   68  A    between atoms: _167  and  _168
REMARK   69  A    between atoms: _167  and  _170
REMARK   70  A    between atoms: _170  and  _171
REMARK   71  A    between atoms: _176  and  _177
REMARK   72  A    between atoms: _179  and  _181
REMARK   73  A    between atoms: _181  and  _182
REMARK   74  A    between atoms: _181  and  _184
REMARK   75  A    between atoms: _184  and  _185
REMARK   76  A    between atoms: _188  and  _190
REMARK   77  A    between atoms: _190  and  _191
REMARK   78  A    between atoms: _190  and  _193
REMARK   79  A    between atoms: _193  and  _194
REMARK   80  A    between atoms: _197  and  _199
REMARK   81  A    between atoms: _199  and  _200
REMARK   82  A    between atoms: _199  and  _202
REMARK   83  A    between atoms: _202  and  _203
REMARK   84  A    between atoms: _208  and  _210
REMARK   85  A    between atoms: _210  and  _211
REMARK   86  A    between atoms: _210  and  _213
REMARK   87  A    between atoms: _213  and  _214
REMARK   88  A    between atoms: _220  and  _221
REMARK   89  A    between atoms: _226  and  _228
REMARK   90  A    between atoms: _228  and  _229
REMARK   91  A    between atoms: _231  and  _233
REMARK   92  A    between atoms: _233  and  _234
REMARK   93  A    between atoms: _238  and  _239
REMARK   94  A    between atoms: _244  and  _246
REMARK   95  A    between atoms: _246  and  _247
REMARK   96  A    between atoms: _249  and  _251
REMARK   97  A    between atoms: _251  and  _252
REMARK   98  A    between atoms: _251  and  _254
REMARK   99  A    between atoms: _254  and  _255
REMARK  100  A    between atoms: _255  and  _256
REMARK  101  A    between atoms: _258  and  _260
REMARK  102  A    between atoms: _260  and  _261
REMARK  103  A    between atoms: _260  and  _263
REMARK  104  A    between atoms: _263  and  _264
REMARK  105  A    between atoms: _266  and  _268
REMARK  106  A    between atoms: _268  and  _269
REMARK  107  A    between atoms: _268  and  _271
REMARK  108  A    between atoms: _271  and  _272
REMARK  109  A    between atoms: _277  and  _279
REMARK  110  A    between atoms: _279  and  _280
REMARK  111  A    between atoms: _282  and  _284
REMARK  112  A    between atoms: _284  and  _285
REMARK  113  A    between atoms: _284  and  _287
REMARK  114  A    between atoms: _287  and  _288
REMARK  115  A    between atoms: _293  and  _295
REMARK  116  A    between atoms: _295  and  _296
REMARK  117  A    between atoms: _299  and  _301
REMARK  118  A    between atoms: _301  and  _302
REMARK  119  A    between atoms: _301  and  _304
REMARK  120  A    between atoms: _304  and  _305
REMARK  121  A    between atoms: _310  and  _312
REMARK  122  A    between atoms: _312  and  _313
REMARK  123  A    between atoms: _312  and  _315
REMARK  124  A    between atoms: _315  and  _316
REMARK  125  A    between atoms: _319  and  _321
REMARK  126  A    between atoms: _321  and  _322
REMARK  127  A    between atoms: _325  and  _326
REMARK  128  A    between atoms: _331  and  _333
REMARK  129  A    between atoms: _333  and  _334
REMARK  130  A    between atoms: _333  and  _336
REMARK  131  A    between atoms: _336  and  _337
REMARK  132  A    between atoms: _340  and  _342
REMARK  133  A    between atoms: _342  and  _343
REMARK  134  A    between atoms: _345  and  _347
REMARK  135  A    between atoms: _347  and  _348
REMARK  136  A    between atoms: _347  and  _350
REMARK  137  A    between atoms: _350  and  _351
REMARK  138  A    between atoms: _351  and  _352
REMARK  139  A    between atoms: _357  and  _359
REMARK  140  A    between atoms: _359  and  _360
REMARK  141  A    between atoms: _359  and  _362
REMARK  142  A    between atoms: _362  and  _363
REMARK  143  A    between atoms: _366  and  _368
REMARK  144  A    between atoms: _368  and  _369
REMARK  145  A    between atoms: _371  and  _373
REMARK  146  A    between atoms: _373  and  _374
REMARK  147  A    between atoms: _373  and  _376
REMARK  148  A    between atoms: _376  and  _377
REMARK  149  A    between atoms: _380  and  _382
REMARK  150  A    between atoms: _382  and  _383
REMARK  151  A    between atoms: _385  and  _387
REMARK  152  A    between atoms: _387  and  _388
REMARK  153  A    between atoms: _387  and  _390
REMARK  154  A    between atoms: _392  and  _394
REMARK  155  A    between atoms: _394  and  _395
REMARK  156  A    between atoms: _394  and  _397
REMARK  157  A    between atoms: _397  and  _398
REMARK  158  A    between atoms: _401  and  _403
REMARK  159  A    between atoms: _403  and  _404
REMARK  160  A    between atoms: _403  and  _406
REMARK  161  A    between atoms: _406  and  _407
REMARK  162  A    between atoms: _407  and  _408
REMARK  163  A    between atoms: _413  and  _415
REMARK  164  A    between atoms: _415  and  _416
REMARK  165  A    between atoms: _415  and  _418
REMARK  166  A    between atoms: _418  and  _419
REMARK  167  A    between atoms: _419  and  _420
REMARK  168  A    between atoms: _423  and  _425
REMARK  169  A    between atoms: _425  and  _426
REMARK  170  A    between atoms: _425  and  _428
REMARK  171  A    between atoms: _428  and  _429
REMARK  172  A    between atoms: _432  and  _434
REMARK  173  A    between atoms: _434  and  _435
REMARK  174  A    between atoms: _434  and  _437
REMARK  175  A    between atoms: _437  and  _438
REMARK  176  A    between atoms: _443  and  _444
REMARK  177  A    between atoms: _446  and  _448
REMARK  178  A    between atoms: _448  and  _449
REMARK  179  A    between atoms: _448  and  _451
REMARK  180  A    between atoms: _451  and  _452
REMARK  181  A    between atoms: _455  and  _457
REMARK  182  A    between atoms: _457  and  _458
REMARK  183  A    between atoms: _457  and  _460
REMARK  184  A    between atoms: _460  and  _461
REMARK  185  A    between atoms: _464  and  _466
REMARK  186  A    between atoms: _470  and  _472
REMARK  187  A    between atoms: _477  and  _480
REMARK  188  A    between atoms: _480  and  _481
REMARK  189  A    between atoms: _481  and  _482
REMARK  190  A    between atoms: _482  and  _483
REMARK  191  A    between atoms: _483  and  _484
REMARK  192  A    between atoms: _490  and  _493
REMARK  193  A    between atoms: _491  and  _497
REMARK  194  A    between atoms: _493  and  _494
REMARK  195  A    between atoms: _497  and  _499
REMARK  196  A    between atoms: _499  and  _500
REMARK  197  A    between atoms: _499  and  _502
REMARK  198  A    between atoms: _502  and  _503
REMARK  199  A    between atoms: _506  and  _508
REMARK  200  A    between atoms: _508  and  _509
REMARK  201  A    between atoms: _508  and  _511
REMARK  202  A    between atoms: _511  and  _512
REMARK  203  A    between atoms: _515  and  _517
REMARK  204  A    between atoms: _517  and  _518
REMARK  205  A    between atoms: _517  and  _520
REMARK  206  A    between atoms: _520  and  _521
REMARK  207  A    between atoms: _524  and  _526
REMARK  208  A    between atoms: _526  and  _527
REMARK  209  A    between atoms: _529  and  _531
REMARK  210  A    between atoms: _531  and  _532
REMARK  211  A    between atoms: _531  and  _534
REMARK  212  A    between atoms: _534  and  _535
REMARK  213  A    between atoms: _538  and  _540
REMARK  214  A    between atoms: _540  and  _541
REMARK  215  A    between atoms: _540  and  _543
REMARK  216  A    between atoms: _543  and  _544
REMARK  217  A    between atoms: _550  and  _552
REMARK  218  A    between atoms: _552  and  _553
REMARK  219  A    between atoms: _552  and  _555
REMARK  220  A    between atoms: _555  and  _556
REMARK  221  A    between atoms: _559  and  _561
REMARK  222  A    between atoms: _561  and  _562
REMARK  223  A    between atoms: _561  and  _564
REMARK  224  A    between atoms: _564  and  _565
REMARK  225  A    between atoms: _568  and  _570
REMARK  226  A    between atoms: _570  and  _571
REMARK  227  A    between atoms: _573  and  _575
REMARK  228  A    between atoms: _575  and  _576
REMARK  229  A    between atoms: _575  and  _578
REMARK  230  A    between atoms: _578  and  _579
REMARK  231  A    between atoms: _581  and  _583
REMARK  232  A    between atoms: _583  and  _584
REMARK  233  A    between atoms: _583  and  _586
REMARK  234  A    between atoms: _586  and  _587
REMARK  235  A    between atoms: _592  and  _594
REMARK  236  A    between atoms: _594  and  _595
REMARK  237  A    between atoms: _594  and  _597
REMARK  238  A    between atoms: _600  and  _602
REMARK  239  A    between atoms: _602  and  _603
REMARK  240  A    between atoms: _602  and  _605
REMARK  241  A    between atoms: _605  and  _606
REMARK  242  A    between atoms: _611  and  _613
REMARK  243  A    between atoms: _613  and  _614
REMARK  244  A    between atoms: _616  and  _618
REMARK  245  A    between atoms: _618  and  _619
REMARK  246  A    between atoms: _618  and  _621
REMARK  247  A    between atoms: _621  and  _622
REMARK  248  A    between atoms: _627  and  _629
REMARK  249  A    between atoms: _629  and  _630
REMARK                            x       y       z     vdW  Elec       q    Type
REMARK                         _______ _______ _______ _____ _____    ______ ____
ROOT
ATOM      1  CA  PHE A   2      11.800  69.398  30.339  0.00  0.00    +0.153 C 
ENDROOT
BRANCH   1   4
ATOM      2  C   ASN A   1      11.112  70.441  32.424  0.00  0.00    +0.239 C 
ATOM      3  O   ASN A   1       9.943  70.446  32.023  0.00  0.00    -0.274 OA
ATOM      4  N   PHE A   2      12.035  69.817  31.703  0.00  0.00    -0.297 N 
ATOM      5  H   PHE A   2      12.961  69.622  32.135  0.00  0.00    +0.150 HD
BRANCH   2   6
ATOM      6  CA  ASN A   1      11.571  70.976  33.808  0.00  0.00    +0.154 C 
BRANCH   6   7
ATOM      7  N   ASN A   1      12.718  70.334  34.417  0.00  0.00    -0.238 NA
ATOM      8  H   ASN A   1      13.612  70.840  34.579  0.00  0.00    +0.142 HD
ENDBRANCH   6   7
BRANCH   6   9
ATOM      9  CB  ASN A   1      11.863  72.443  33.737  0.00  0.00    +0.111 C 
BRANCH   9  10
ATOM     10  CG  ASN A   1      10.516  73.166  33.708  0.00  0.00    +0.221 C 
ATOM     11  OD1 ASN A   1       9.568  72.850  34.447  0.00  0.00    -0.275 OA
ATOM     12  ND2 ASN A   1      10.385  74.138  32.829  0.00  0.00    -0.329 N 
ATOM     13 HD21 ASN A   1       9.482  74.648  32.749  0.00  0.00    +0.145 HD
ATOM     14 HD22 ASN A   1      11.184  74.395  32.215  0.00  0.00    +0.145 HD
ENDBRANCH   9  10
ENDBRANCH   6   9
ENDBRANCH   2   6
ENDBRANCH   1   4
BRANCH   1  15
ATOM     15  C   PHE A   2      11.514  67.910  30.214  0.00  0.00    +0.241 C 
ATOM     16  N   VAL A   3      11.551  67.178  31.327  0.00  0.00    -0.298 N 
ATOM     17  H   VAL A   3      11.933  67.608  32.193  0.00  0.00    +0.150 HD
ATOM     18  O   PHE A   2      11.100  67.424  29.171  0.00  0.00    -0.273 OA
BRANCH  16  19
ATOM     19  CA  VAL A   3      11.087  65.823  31.381  0.00  0.00    +0.137 C 
BRANCH  19  20
ATOM     20  CB  VAL A   3      11.392  65.196  32.756  0.00  0.00    +0.026 C 
ATOM     21  CG2 VAL A   3      12.871  65.088  32.979  0.00  0.00    +0.002 C 
ATOM     22  CG1 VAL A   3      10.923  63.759  32.786  0.00  0.00    +0.002 C 
ENDBRANCH  19  20
BRANCH  19  23
ATOM     23  C   VAL A   3       9.578  65.823  31.123  0.00  0.00    +0.227 C 
ATOM     24  O   VAL A   3       8.997  64.819  30.724  0.00  0.00    -0.286 OA
ENDBRANCH  19  23
ENDBRANCH  16  19
ENDBRANCH   1  15
BRANCH   1  25
ATOM     25  CB  PHE A   2      13.029  69.911  29.581  0.00  0.00    +0.055 C 
BRANCH  25  26
ATOM     26  CG  PHE A   2      13.107  71.441  29.662  0.00  0.00    -0.020 A 
ATOM     27  CD2 PHE A   2      14.302  72.071  29.956  0.00  0.00    -0.004 A 
ATOM     28  CE2 PHE A   2      14.360  73.474  30.043  0.00  0.00    -0.000 A 
ATOM     29  CZ  PHE A   2      13.221  74.248  29.833  0.00  0.00    -0.000 A 
ATOM     30  CE1 PHE A   2      12.023  73.610  29.538  0.00  0.00    -0.000 A 
ATOM     31  CD1 PHE A   2      11.976  72.222  29.455  0.00  0.00    -0.004 A 
ENDBRANCH  25  26
ENDBRANCH   1  25
TORSDOF 11
REMARK  Name = ../refined-set-2016/1tkb/1tkb_pocket.pdb
REMARK  249 active torsions:
REMARK  status: ('A' for Active; 'I' for Inactive)
REMARK    1  A    between atoms: _1  and  _3
REMARK    2  A    between atoms: _3  and  _4
REMARK    3  A    between atoms: _3  and  _6
REMARK    4  A    between atoms: _6  and  _7
REMARK    5  A    between atoms: _9  and  _11
REMARK    6  A    between atoms: _11  and  _12
REMARK    7  A    between atoms: _15  and  _17
REMARK    8  A    between atoms: _17  and  _18
REMARK    9  A    between atoms: _17  and  _20
REMARK   10  A    between atoms: _20  and  _21
REMARK   11  A    between atoms: _24  and  _26
REMARK   12  A    between atoms: _26  and  _27
REMARK   13  A    between atoms: _26  and  _29
REMARK   14  A    between atoms: _29  and  _30
REMARK   15  A    between atoms: _33  and  _35
REMARK   16  A    between atoms: _35  and  _36
REMARK   17  A    between atoms: _35  and  _38
REMARK   18  A    between atoms: _38  and  _39
REMARK   19  A    between atoms: _42  and  _44
REMARK   20  A    between atoms: _44  and  _45
REMARK   21  A    between atoms: _44  and  _47
REMARK   22  A    between atoms: _47  and  _48
REMARK   23  A    between atoms: _50  and  _52
REMARK   24  A    between atoms: _52  and  _53
REMARK   25  A    between atoms: _52  and  _55
REMARK   26  A    between atoms: _55  and  _56
REMARK   27  A    between atoms: _61  and  _63
REMARK   28  A    between atoms: _63  and  _64
REMARK   29  A    between atoms: _66  and  _68
REMARK   30  A    between atoms: _68  and  _69
REMARK   31  A    between atoms: _68  and  _71
REMARK   32  A    between atoms: _71  and  _72
REMARK   33  A    between atoms: _75  and  _77
REMARK   34  A    between atoms: _77  and  _78
REMARK   35  A    between atoms: _77  and  _80
REMARK   36  A    between atoms: _80  and  _81
REMARK   37  A    between atoms: _81  and  _82
REMARK   38  A    between atoms: _82  and  _83
REMARK   39  A    between atoms: _92  and  _94
REMARK   40  A    between atoms: _94  and  _95
REMARK   41  A    between atoms: _94  and  _97
REMARK   42  A    between atoms: _97  and  _98
REMARK   43  A    between atoms: _98  and  _99
REMARK   44  A    between atoms: _102  and  _104
REMARK   45  A    between atoms: _104  and  _105
REMARK   46  A    between atoms: _104  and  _107
REMARK   47  A    between atoms: _107  and  _108
REMARK   48  A    between atoms: _113  and  _115
REMARK   49  A    between atoms: _115  and  _116
REMARK   50  A    between atoms: _115  and  _118
REMARK   51  A    between atoms: _118  and  _119
REMARK   52  A    between atoms: _122  and  _124
REMARK   53  A    between atoms: _124  and  _125
REMARK   54  A    between atoms: _124  and  _127
REMARK   55  A    between atoms: _127  and  _128
REMARK   56  A    between atoms: _134  and  _136
REMARK   57  A    between atoms: _136  and  _137
REMARK   58  A    between atoms: _136  and  _139
REMARK   59  A    between atoms: _139  and  _140
REMARK   60  A    between atoms: _145  and  _147
REMARK   61  A    between atoms: _147  and  _148
REMARK   62  A    between atoms: _147  and  _150
REMARK   63  A    between atoms: _150  and  _151
REMARK   64  A    between atoms: _157  and  _159
REMARK   65  A    between atoms: _159  and  _160
REMARK   66  A    between atoms: _159  and  _162
REMARK   67  A    between atoms: _165  and  _167
REMARK   68  A    between atoms: _167  and  _168
REMARK   69  A    between atoms: _167  and  _170
REMARK   70  A    between atoms: _170  and  _171
REMARK   71  A    between atoms: _176  and  _177
REMARK   72  A    between atoms: _179  and  _181
REMARK   73  A    between atoms: _181  and  _182
REMARK   74  A    between atoms: _181  and  _184
REMARK   75  A    between atoms: _184  and  _185
REMARK   76  A    between atoms: _188  and  _190
REMARK   77  A    between atoms: _190  and  _191
REMARK   78  A    between atoms: _190  and  _193
REMARK   79  A    between atoms: _193  and  _194
REMARK   80  A    between atoms: _197  and  _199
REMARK   81  A    between atoms: _199  and  _200
REMARK   82  A    between atoms: _199  and  _202
REMARK   83  A    between atoms: _202  and  _203
REMARK   84  A    between atoms: _208  and  _210
REMARK   85  A    between atoms: _210  and  _211
REMARK   86  A    between atoms: _210  and  _213
REMARK   87  A    between atoms: _213  and  _214
REMARK   88  A    between atoms: _220  and  _221
REMARK   89  A    between atoms: _226  and  _228
REMARK   90  A    between atoms: _228  and  _229
REMARK   91  A    between atoms: _231  and  _233
REMARK   92  A    between atoms: _233  and  _234
REMARK   93  A    between atoms: _238  and  _239
REMARK   94  A    between atoms: _244  and  _246
REMARK   95  A    between atoms: _246  and  _247
REMARK   96  A    between atoms: _249  and  _251
REMARK   97  A    between atoms: _251  and  _252
REMARK   98  A    between atoms: _251  and  _254
REMARK   99  A    between atoms: _254  and  _255
REMARK  100  A    between atoms: _255  and  _256
REMARK  101  A    between atoms: _258  and  _260
REMARK  102  A    between atoms: _260  and  _261
REMARK  103  A    between atoms: _260  and  _263
REMARK  104  A    between atoms: _263  and  _264
REMARK  105  A    between atoms: _266  and  _268
REMARK  106  A    between atoms: _268  and  _269
REMARK  107  A    between atoms: _268  and  _271
REMARK  108  A    between atoms: _271  and  _272
REMARK  109  A    between atoms: _277  and  _279
REMARK  110  A    between atoms: _279  and  _280
REMARK  111  A    between atoms: _282  and  _284
REMARK  112  A    between atoms: _284  and  _285
REMARK  113  A    between atoms: _284  and  _287
REMARK  114  A    between atoms: _287  and  _288
REMARK  115  A    between atoms: _293  and  _295
REMARK  116  A    between atoms: _295  and  _296
REMARK  117  A    between atoms: _299  and  _301
REMARK  118  A    between atoms: _301  and  _302
REMARK  119  A    between atoms: _301  and  _304
REMARK  120  A    between atoms: _304  and  _305
REMARK  121  A    between atoms: _310  and  _312
REMARK  122  A    between atoms: _312  and  _313
REMARK  123  A    between atoms: _312  and  _315
REMARK  124  A    between atoms: _315  and  _316
REMARK  125  A    between atoms: _319  and  _321
REMARK  126  A    between atoms: _321  and  _322
REMARK  127  A    between atoms: _325  and  _326
REMARK  128  A    between atoms: _331  and  _333
REMARK  129  A    between atoms: _333  and  _334
REMARK  130  A    between atoms: _333  and  _336
REMARK  131  A    between atoms: _336  and  _337
REMARK  132  A    between atoms: _340  and  _342
REMARK  133  A    between atoms: _342  and  _343
REMARK  134  A    between atoms: _345  and  _347
REMARK  135  A    between atoms: _347  and  _348
REMARK  136  A    between atoms: _347  and  _350
REMARK  137  A    between atoms: _350  and  _351
REMARK  138  A    between atoms: _351  and  _352
REMARK  139  A    between atoms: _357  and  _359
REMARK  140  A    between atoms: _359  and  _360
REMARK  141  A    between atoms: _359  and  _362
REMARK  142  A    between atoms: _362  and  _363
REMARK  143  A    between atoms: _366  and  _368
REMARK  144  A    between atoms: _368  and  _369
REMARK  145  A    between atoms: _371  and  _373
REMARK  146  A    between atoms: _373  and  _374
REMARK  147  A    between atoms: _373  and  _376
REMARK  148  A    between atoms: _376  and  _377
REMARK  149  A    between atoms: _380  and  _382
REMARK  150  A    between atoms: _382  and  _383
REMARK  151  A    between atoms: _385  and  _387
REMARK  152  A    between atoms: _387  and  _388
REMARK  153  A    between atoms: _387  and  _390
REMARK  154  A    between atoms: _392  and  _394
REMARK  155  A    between atoms: _394  and  _395
REMARK  156  A    between atoms: _394  and  _397
REMARK  157  A    between atoms: _397  and  _398
REMARK  158  A    between atoms: _401  and  _403
REMARK  159  A    between atoms: _403  and  _404
REMARK  160  A    between atoms: _403  and  _406
REMARK  161  A    between atoms: _406  and  _407
REMARK  162  A    between atoms: _407  and  _408
REMARK  163  A    between atoms: _413  and  _415
REMARK  164  A    between atoms: _415  and  _416
REMARK  165  A    between atoms: _415  and  _418
REMARK  166  A    between atoms: _418  and  _419
REMARK  167  A    between atoms: _419  and  _420
REMARK  168  A    between atoms: _423  and  _425
REMARK  169  A    between atoms: _425  and  _426
REMARK  170  A    between atoms: _425  and  _428
REMARK  171  A    between atoms: _428  and  _429
REMARK  172  A    between atoms: _432  and  _434
REMARK  173  A    between atoms: _434  and  _435
REMARK  174  A    between atoms: _434  and  _437
REMARK  175  A    between atoms: _437  and  _438
REMARK  176  A    between atoms: _443  and  _444
REMARK  177  A    between atoms: _446  and  _448
REMARK  178  A    between atoms: _448  and  _449
REMARK  179  A    between atoms: _448  and  _451
REMARK  180  A    between atoms: _451  and  _452
REMARK  181  A    between atoms: _455  and  _457
REMARK  182  A    between atoms: _457  and  _458
REMARK  183  A    between atoms: _457  and  _460
REMARK  184  A    between atoms: _460  and  _461
REMARK  185  A    between atoms: _464  and  _466
REMARK  186  A    between atoms: _470  and  _472
REMARK  187  A    between atoms: _477  and  _480
REMARK  188  A    between atoms: _480  and  _481
REMARK  189  A    between atoms: _481  and  _482
REMARK  190  A    between atoms: _482  and  _483
REMARK  191  A    between atoms: _483  and  _484
REMARK  192  A    between atoms: _490  and  _493
REMARK  193  A    between atoms: _491  and  _497
REMARK  194  A    between atoms: _493  and  _494
REMARK  195  A    between atoms: _497  and  _499
REMARK  196  A    between atoms: _499  and  _500
REMARK  197  A    between atoms: _499  and  _502
REMARK  198  A    between atoms: _502  and  _503
REMARK  199  A    between atoms: _506  and  _508
REMARK  200  A    between atoms: _508  and  _509
REMARK  201  A    between atoms: _508  and  _511
REMARK  202  A    between atoms: _511  and  _512
REMARK  203  A    between atoms: _515  and  _517
REMARK  204  A    between atoms: _517  and  _518
REMARK  205  A    between atoms: _517  and  _520
REMARK  206  A    between atoms: _520  and  _521
REMARK  207  A    between atoms: _524  and  _526
REMARK  208  A    between atoms: _526  and  _527
REMARK  209  A    between atoms: _529  and  _531
REMARK  210  A    between atoms: _531  and  _532
REMARK  211  A    between atoms: _531  and  _534
REMARK  212  A    between atoms: _534  and  _535
REMARK  213  A    between atoms: _538  and  _540
REMARK  214  A    between atoms: _540  and  _541
REMARK  215  A    between atoms: _540  and  _543
REMARK  216  A    between atoms: _543  and  _544
REMARK  217  A    between atoms: _550  and  _552
REMARK  218  A    between atoms: _552  and  _553
REMARK  219  A    between atoms: _552  and  _555
REMARK  220  A    between atoms: _555  and  _556
REMARK  221  A    between atoms: _559  and  _561
REMARK  222  A    between atoms: _561  and  _562
REMARK  223  A    between atoms: _561  and  _564
REMARK  224  A    between atoms: _564  and  _565
REMARK  225  A    between atoms: _568  and  _570
REMARK  226  A    between atoms: _570  and  _571
REMARK  227  A    between atoms: _573  and  _575
REMARK  228  A    between atoms: _575  and  _576
REMARK  229  A    between atoms: _575  and  _578
REMARK  230  A    between atoms: _578  and  _579
REMARK  231  A    between atoms: _581  and  _583
REMARK  232  A    between atoms: _583  and  _584
REMARK  233  A    between atoms: _583  and  _586
REMARK  234  A    between atoms: _586  and  _587
REMARK  235  A    between atoms: _592  and  _594
REMARK  236  A    between atoms: _594  and  _595
REMARK  237  A    between atoms: _594  and  _597
REMARK  238  A    between atoms: _600  and  _602
REMARK  239  A    between atoms: _602  and  _603
REMARK  240  A    between atoms: _602  and  _605
REMARK  241  A    between atoms: _605  and  _606
REMARK  242  A    between atoms: _611  and  _613
REMARK  243  A    between atoms: _613  and  _614
REMARK  244  A    between atoms: _616  and  _618
REMARK  245  A    between atoms: _618  and  _619
REMARK  246  A    between atoms: _618  and  _621
REMARK  247  A    between atoms: _621  and  _622
REMARK  248  A    between atoms: _627  and  _629
REMARK  249  A    between atoms: _629  and  _630
REMARK                            x       y       z     vdW  Elec       q    Type
REMARK                         _______ _______ _______ _____ _____    ______ ____
ROOT
ATOM      1  CG  TYR A   1       9.355  69.234  26.239  0.00  0.00    -0.020 A 
ATOM      2  CD2 TYR A   1       8.623  70.224  26.879  0.00  0.00    -0.001 A 
ATOM      3  CE2 TYR A   1       8.644  71.526  26.408  0.00  0.00    +0.036 A 
ATOM      4  CZ  TYR A   1       9.399  71.830  25.283  0.00  0.00    +0.134 A 
ATOM      5  CE1 TYR A   1      10.115  70.832  24.661  0.00  0.00    +0.036 A 
ATOM      6  CD1 TYR A   1      10.100  69.538  25.140  0.00  0.00    -0.001 A 
ENDROOT
BRANCH   4   7
ATOM      7  OH  TYR A   1       9.452  73.111  24.755  0.00  0.00    -0.506 OA
ATOM      8  HH  TYR A   1       9.112  73.098  23.825  0.00  0.00    +0.292 HD
ENDBRANCH   4   7
BRANCH   1   9
ATOM      9  CB  TYR A   1       9.384  67.786  26.668  0.00  0.00    +0.051 C 
BRANCH   9  10
ATOM     10  CA  TYR A   1       8.097  67.256  27.285  0.00  0.00    +0.137 C 
BRANCH  10  11
ATOM     11  N   TYR A   1       8.178  67.409  28.728  0.00  0.00    -0.239 NA
ATOM     12  H   TYR A   1       9.049  67.789  29.151  0.00  0.00    +0.142 HD
ENDBRANCH  10  11
BRANCH  10  13
ATOM     13  C   TYR A   1       7.919  65.768  26.910  0.00  0.00    +0.224 C 
ATOM     14  O   TYR A   1       7.130  65.376  26.029  0.00  0.00    -0.287 OA
ENDBRANCH  10  13
ENDBRANCH   9  10
ENDBRANCH   1   9
TORSDOF 5
REMARK  Name = ../refined-set-2016/1tkb/1tkb_pocket.pdb
REMARK  249 active torsions:
REMARK  status: ('A' for Active; 'I' for Inactive)
REMARK    1  A    between atoms: _1  and  _3
REMARK    2  A    between atoms: _3  and  _4
REMARK    3  A    between atoms: _3  and  _6
REMARK    4  A    between atoms: _6  and  _7
REMARK    5  A    between atoms: _9  and  _11
REMARK    6  A    between atoms: _11  and  _12
REMARK    7  A    between atoms: _15  and  _17
REMARK    8  A    between atoms: _17  and  _18
REMARK    9  A    between atoms: _17  and  _20
REMARK   10  A    between atoms: _20  and  _21
REMARK   11  A    between atoms: _24  and  _26
REMARK   12  A    between atoms: _26  and  _27
REMARK   13  A    between atoms: _26  and  _29
REMARK   14  A    between atoms: _29  and  _30
REMARK   15  A    between atoms: _33  and  _35
REMARK   16  A    between atoms: _35  and  _36
REMARK   17  A    between atoms: _35  and  _38
REMARK   18  A    between atoms: _38  and  _39
REMARK   19  A    between atoms: _42  and  _44
REMARK   20  A    between atoms: _44  and  _45
REMARK   21  A    between atoms: _44  and  _47
REMARK   22  A    between atoms: _47  and  _48
REMARK   23  A    between atoms: _50  and  _52
REMARK   24  A    between atoms: _52  and  _53
REMARK   25  A    between atoms: _52  and  _55
REMARK   26  A    between atoms: _55  and  _56
REMARK   27  A    between atoms: _61  and  _63
REMARK   28  A    between atoms: _63  and  _64
REMARK   29  A    between atoms: _66  and  _68
REMARK   30  A    between atoms: _68  and  _69
REMARK   31  A    between atoms: _68  and  _71
REMARK   32  A    between atoms: _71  and  _72
REMARK   33  A    between atoms: _75  and  _77
REMARK   34  A    between atoms: _77  and  _78
REMARK   35  A    between atoms: _77  and  _80
REMARK   36  A    between atoms: _80  and  _81
REMARK   37  A    between atoms: _81  and  _82
REMARK   38  A    between atoms: _82  and  _83
REMARK   39  A    between atoms: _92  and  _94
REMARK   40  A    between atoms: _94  and  _95
REMARK   41  A    between atoms: _94  and  _97
REMARK   42  A    between atoms: _97  and  _98
REMARK   43  A    between atoms: _98  and  _99
REMARK   44  A    between atoms: _102  and  _104
REMARK   45  A    between atoms: _104  and  _105
REMARK   46  A    between atoms: _104  and  _107
REMARK   47  A    between atoms: _107  and  _108
REMARK   48  A    between atoms: _113  and  _115
REMARK   49  A    between atoms: _115  and  _116
REMARK   50  A    between atoms: _115  and  _118
REMARK   51  A    between atoms: _118  and  _119
REMARK   52  A    between atoms: _122  and  _124
REMARK   53  A    between atoms: _124  and  _125
REMARK   54  A    between atoms: _124  and  _127
REMARK   55  A    between atoms: _127  and  _128
REMARK   56  A    between atoms: _134  and  _136
REMARK   57  A    between atoms: _136  and  _137
REMARK   58  A    between atoms: _136  and  _139
REMARK   59  A    between atoms: _139  and  _140
REMARK   60  A    between atoms: _145  and  _147
REMARK   61  A    between atoms: _147  and  _148
REMARK   62  A    between atoms: _147  and  _150
REMARK   63  A    between atoms: _150  and  _151
REMARK   64  A    between atoms: _157  and  _159
REMARK   65  A    between atoms: _159  and  _160
REMARK   66  A    between atoms: _159  and  _162
REMARK   67  A    between atoms: _165  and  _167
REMARK   68  A    between atoms: _167  and  _168
REMARK   69  A    between atoms: _167  and  _170
REMARK   70  A    between atoms: _170  and  _171
REMARK   71  A    between atoms: _176  and  _177
REMARK   72  A    between atoms: _179  and  _181
REMARK   73  A    between atoms: _181  and  _182
REMARK   74  A    between atoms: _181  and  _184
REMARK   75  A    between atoms: _184  and  _185
REMARK   76  A    between atoms: _188  and  _190
REMARK   77  A    between atoms: _190  and  _191
REMARK   78  A    between atoms: _190  and  _193
REMARK   79  A    between atoms: _193  and  _194
REMARK   80  A    between atoms: _197  and  _199
REMARK   81  A    between atoms: _199  and  _200
REMARK   82  A    between atoms: _199  and  _202
REMARK   83  A    between atoms: _202  and  _203
REMARK   84  A    between atoms: _208  and  _210
REMARK   85  A    between atoms: _210  and  _211
REMARK   86  A    between atoms: _210  and  _213
REMARK   87  A    between atoms: _213  and  _214
REMARK   88  A    between atoms: _220  and  _221
REMARK   89  A    between atoms: _226  and  _228
REMARK   90  A    between atoms: _228  and  _229
REMARK   91  A    between atoms: _231  and  _233
REMARK   92  A    between atoms: _233  and  _234
REMARK   93  A    between atoms: _238  and  _239
REMARK   94  A    between atoms: _244  and  _246
REMARK   95  A    between atoms: _246  and  _247
REMARK   96  A    between atoms: _249  and  _251
REMARK   97  A    between atoms: _251  and  _252
REMARK   98  A    between atoms: _251  and  _254
REMARK   99  A    between atoms: _254  and  _255
REMARK  100  A    between atoms: _255  and  _256
REMARK  101  A    between atoms: _258  and  _260
REMARK  102  A    between atoms: _260  and  _261
REMARK  103  A    between atoms: _260  and  _263
REMARK  104  A    between atoms: _263  and  _264
REMARK  105  A    between atoms: _266  and  _268
REMARK  106  A    between atoms: _268  and  _269
REMARK  107  A    between atoms: _268  and  _271
REMARK  108  A    between atoms: _271  and  _272
REMARK  109  A    between atoms: _277  and  _279
REMARK  110  A    between atoms: _279  and  _280
REMARK  111  A    between atoms: _282  and  _284
REMARK  112  A    between atoms: _284  and  _285
REMARK  113  A    between atoms: _284  and  _287
REMARK  114  A    between atoms: _287  and  _288
REMARK  115  A    between atoms: _293  and  _295
REMARK  116  A    between atoms: _295  and  _296
REMARK  117  A    between atoms: _299  and  _301
REMARK  118  A    between atoms: _301  and  _302
REMARK  119  A    between atoms: _301  and  _304
REMARK  120  A    between atoms: _304  and  _305
REMARK  121  A    between atoms: _310  and  _312
REMARK  122  A    between atoms: _312  and  _313
REMARK  123  A    between atoms: _312  and  _315
REMARK  124  A    between atoms: _315  and  _316
REMARK  125  A    between atoms: _319  and  _321
REMARK  126  A    between atoms: _321  and  _322
REMARK  127  A    between atoms: _325  and  _326
REMARK  128  A    between atoms: _331  and  _333
REMARK  129  A    between atoms: _333  and  _334
REMARK  130  A    between atoms: _333  and  _336
REMARK  131  A    between atoms: _336  and  _337
REMARK  132  A    between atoms: _340  and  _342
REMARK  133  A    between atoms: _342  and  _343
REMARK  134  A    between atoms: _345  and  _347
REMARK  135  A    between atoms: _347  and  _348
REMARK  136  A    between atoms: _347  and  _350
REMARK  137  A    between atoms: _350  and  _351
REMARK  138  A    between atoms: _351  and  _352
REMARK  139  A    between atoms: _357  and  _359
REMARK  140  A    between atoms: _359  and  _360
REMARK  141  A    between atoms: _359  and  _362
REMARK  142  A    between atoms: _362  and  _363
REMARK  143  A    between atoms: _366  and  _368
REMARK  144  A    between atoms: _368  and  _369
REMARK  145  A    between atoms: _371  and  _373
REMARK  146  A    between atoms: _373  and  _374
REMARK  147  A    between atoms: _373  and  _376
REMARK  148  A    between atoms: _376  and  _377
REMARK  149  A    between atoms: _380  and  _382
REMARK  150  A    between atoms: _382  and  _383
REMARK  151  A    between atoms: _385  and  _387
REMARK  152  A    between atoms: _387  and  _388
REMARK  153  A    between atoms: _387  and  _390
REMARK  154  A    between atoms: _392  and  _394
REMARK  155  A    between atoms: _394  and  _395
REMARK  156  A    between atoms: _394  and  _397
REMARK  157  A    between atoms: _397  and  _398
REMARK  158  A    between atoms: _401  and  _403
REMARK  159  A    between atoms: _403  and  _404
REMARK  160  A    between atoms: _403  and  _406
REMARK  161  A    between atoms: _406  and  _407
REMARK  162  A    between atoms: _407  and  _408
REMARK  163  A    between atoms: _413  and  _415
REMARK  164  A    between atoms: _415  and  _416
REMARK  165  A    between atoms: _415  and  _418
REMARK  166  A    between atoms: _418  and  _419
REMARK  167  A    between atoms: _419  and  _420
REMARK  168  A    between atoms: _423  and  _425
REMARK  169  A    between atoms: _425  and  _426
REMARK  170  A    between atoms: _425  and  _428
REMARK  171  A    between atoms: _428  and  _429
REMARK  172  A    between atoms: _432  and  _434
REMARK  173  A    between atoms: _434  and  _435
REMARK  174  A    between atoms: _434  and  _437
REMARK  175  A    between atoms: _437  and  _438
REMARK  176  A    between atoms: _443  and  _444
REMARK  177  A    between atoms: _446  and  _448
REMARK  178  A    between atoms: _448  and  _449
REMARK  179  A    between atoms: _448  and  _451
REMARK  180  A    between atoms: _451  and  _452
REMARK  181  A    between atoms: _455  and  _457
REMARK  182  A    between atoms: _457  and  _458
REMARK  183  A    between atoms: _457  and  _460
REMARK  184  A    between atoms: _460  and  _461
REMARK  185  A    between atoms: _464  and  _466
REMARK  186  A    between atoms: _470  and  _472
REMARK  187  A    between atoms: _477  and  _480
REMARK  188  A    between atoms: _480  and  _481
REMARK  189  A    between atoms: _481  and  _482
REMARK  190  A    between atoms: _482  and  _483
REMARK  191  A    between atoms: _483  and  _484
REMARK  192  A    between atoms: _490  and  _493
REMARK  193  A    between atoms: _491  and  _497
REMARK  194  A    between atoms: _493  and  _494
REMARK  195  A    between atoms: _497  and  _499
REMARK  196  A    between atoms: _499  and  _500
REMARK  197  A    between atoms: _499  and  _502
REMARK  198  A    between atoms: _502  and  _503
REMARK  199  A    between atoms: _506  and  _508
REMARK  200  A    between atoms: _508  and  _509
REMARK  201  A    between atoms: _508  and  _511
REMARK  202  A    between atoms: _511  and  _512
REMARK  203  A    between atoms: _515  and  _517
REMARK  204  A    between atoms: _517  and  _518
REMARK  205  A    between atoms: _517  and  _520
REMARK  206  A    between atoms: _520  and  _521
REMARK  207  A    between atoms: _524  and  _526
REMARK  208  A    between atoms: _526  and  _527
REMARK  209  A    between atoms: _529  and  _531
REMARK  210  A    between atoms: _531  and  _532
REMARK  211  A    between atoms: _531  and  _534
REMARK  212  A    between atoms: _534  and  _535
REMARK  213  A    between atoms: _538  and  _540
REMARK  214  A    between atoms: _540  and  _541
REMARK  215  A    between atoms: _540  and  _543
REMARK  216  A    between atoms: _543  and  _544
REMARK  217  A    between atoms: _550  and  _552
REMARK  218  A    between atoms: _552  and  _553
REMARK  219  A    between atoms: _552  and  _555
REMARK  220  A    between atoms: _555  and  _556
REMARK  221  A    between atoms: _559  and  _561
REMARK  222  A    between atoms: _561  and  _562
REMARK  223  A    between atoms: _561  and  _564
REMARK  224  A    between atoms: _564  and  _565
REMARK  225  A    between atoms: _568  and  _570
REMARK  226  A    between atoms: _570  and  _571
REMARK  227  A    between atoms: _573  and  _575
REMARK  228  A    between atoms: _575  and  _576
REMARK  229  A    between atoms: _575  and  _578
REMARK  230  A    between atoms: _578  and  _579
REMARK  231  A    between atoms: _581  and  _583
REMARK  232  A    between atoms: _583  and  _584
REMARK  233  A    between atoms: _583  and  _586
REMARK  234  A    between atoms: _586  and  _587
REMARK  235  A    between atoms: _592  and  _594
REMARK  236  A    between atoms: _594  and  _595
REMARK  237  A    between atoms: _594  and  _597
REMARK  238  A    between atoms: _600  and  _602
REMARK  239  A    between atoms: _602  and  _603
REMARK  240  A    between atoms: _602  and  _605
REMARK  241  A    between atoms: _605  and  _606
REMARK  242  A    between atoms: _611  and  _613
REMARK  243  A    between atoms: _613  and  _614
REMARK  244  A    between atoms: _616  and  _618
REMARK  245  A    between atoms: _618  and  _619
REMARK  246  A    between atoms: _618  and  _621
REMARK  247  A    between atoms: _621  and  _622
REMARK  248  A    between atoms: _627  and  _629
REMARK  249  A    between atoms: _629  and  _630
REMARK                            x       y       z     vdW  Elec       q    Type
REMARK                         _______ _______ _______ _____ _____    ______ ____
ROOT
ATOM      1  CA  ASP A   1      17.291  81.254  33.965  0.00  0.00    +0.144 C 
ENDROOT
BRANCH   1   2
ATOM      2  N   ASP A   1      18.031  81.616  35.162  0.00  0.00    -0.239 NA
ATOM      3  H   ASP A   1      18.523  80.887  35.717  0.00  0.00    +0.142 HD
ENDBRANCH   1   2
BRANCH   1   4
ATOM      4  C   ASP A   1      15.802  81.509  34.019  0.00  0.00    +0.225 C 
ATOM      5  O   ASP A   1      15.124  81.555  32.972  0.00  0.00    -0.287 OA
ENDBRANCH   1   4
BRANCH   1   6
ATOM      6  CB  ASP A   1      17.500  79.807  33.642  0.00  0.00    +0.139 C 
BRANCH   6   7
ATOM      7  CG  ASP A   1      18.755  79.569  32.831  0.00  0.00    +0.367 C 
ATOM      8  OD2 ASP A   1      19.271  78.440  32.909  0.00  0.00    -0.246 OA
ATOM      9  OD1 ASP A   1      19.194  80.504  32.141  0.00  0.00    -0.246 OA
ENDBRANCH   6   7
ENDBRANCH   1   6
TORSDOF 4
REMARK  Name = ../refined-set-2016/1tkb/1tkb_pocket.pdb
REMARK  249 active torsions:
REMARK  status: ('A' for Active; 'I' for Inactive)
REMARK    1  A    between atoms: _1  and  _3
REMARK    2  A    between atoms: _3  and  _4
REMARK    3  A    between atoms: _3  and  _6
REMARK    4  A    between atoms: _6  and  _7
REMARK    5  A    between atoms: _9  and  _11
REMARK    6  A    between atoms: _11  and  _12
REMARK    7  A    between atoms: _15  and  _17
REMARK    8  A    between atoms: _17  and  _18
REMARK    9  A    between atoms: _17  and  _20
REMARK   10  A    between atoms: _20  and  _21
REMARK   11  A    between atoms: _24  and  _26
REMARK   12  A    between atoms: _26  and  _27
REMARK   13  A    between atoms: _26  and  _29
REMARK   14  A    between atoms: _29  and  _30
REMARK   15  A    between atoms: _33  and  _35
REMARK   16  A    between atoms: _35  and  _36
REMARK   17  A    between atoms: _35  and  _38
REMARK   18  A    between atoms: _38  and  _39
REMARK   19  A    between atoms: _42  and  _44
REMARK   20  A    between atoms: _44  and  _45
REMARK   21  A    between atoms: _44  and  _47
REMARK   22  A    between atoms: _47  and  _48
REMARK   23  A    between atoms: _50  and  _52
REMARK   24  A    between atoms: _52  and  _53
REMARK   25  A    between atoms: _52  and  _55
REMARK   26  A    between atoms: _55  and  _56
REMARK   27  A    between atoms: _61  and  _63
REMARK   28  A    between atoms: _63  and  _64
REMARK   29  A    between atoms: _66  and  _68
REMARK   30  A    between atoms: _68  and  _69
REMARK   31  A    between atoms: _68  and  _71
REMARK   32  A    between atoms: _71  and  _72
REMARK   33  A    between atoms: _75  and  _77
REMARK   34  A    between atoms: _77  and  _78
REMARK   35  A    between atoms: _77  and  _80
REMARK   36  A    between atoms: _80  and  _81
REMARK   37  A    between atoms: _81  and  _82
REMARK   38  A    between atoms: _82  and  _83
REMARK   39  A    between atoms: _92  and  _94
REMARK   40  A    between atoms: _94  and  _95
REMARK   41  A    between atoms: _94  and  _97
REMARK   42  A    between atoms: _97  and  _98
REMARK   43  A    between atoms: _98  and  _99
REMARK   44  A    between atoms: _102  and  _104
REMARK   45  A    between atoms: _104  and  _105
REMARK   46  A    between atoms: _104  and  _107
REMARK   47  A    between atoms: _107  and  _108
REMARK   48  A    between atoms: _113  and  _115
REMARK   49  A    between atoms: _115  and  _116
REMARK   50  A    between atoms: _115  and  _118
REMARK   51  A    between atoms: _118  and  _119
REMARK   52  A    between atoms: _122  and  _124
REMARK   53  A    between atoms: _124  and  _125
REMARK   54  A    between atoms: _124  and  _127
REMARK   55  A    between atoms: _127  and  _128
REMARK   56  A    between atoms: _134  and  _136
REMARK   57  A    between atoms: _136  and  _137
REMARK   58  A    between atoms: _136  and  _139
REMARK   59  A    between atoms: _139  and  _140
REMARK   60  A    between atoms: _145  and  _147
REMARK   61  A    between atoms: _147  and  _148
REMARK   62  A    between atoms: _147  and  _150
REMARK   63  A    between atoms: _150  and  _151
REMARK   64  A    between atoms: _157  and  _159
REMARK   65  A    between atoms: _159  and  _160
REMARK   66  A    between atoms: _159  and  _162
REMARK   67  A    between atoms: _165  and  _167
REMARK   68  A    between atoms: _167  and  _168
REMARK   69  A    between atoms: _167  and  _170
REMARK   70  A    between atoms: _170  and  _171
REMARK   71  A    between atoms: _176  and  _177
REMARK   72  A    between atoms: _179  and  _181
REMARK   73  A    between atoms: _181  and  _182
REMARK   74  A    between atoms: _181  and  _184
REMARK   75  A    between atoms: _184  and  _185
REMARK   76  A    between atoms: _188  and  _190
REMARK   77  A    between atoms: _190  and  _191
REMARK   78  A    between atoms: _190  and  _193
REMARK   79  A    between atoms: _193  and  _194
REMARK   80  A    between atoms: _197  and  _199
REMARK   81  A    between atoms: _199  and  _200
REMARK   82  A    between atoms: _199  and  _202
REMARK   83  A    between atoms: _202  and  _203
REMARK   84  A    between atoms: _208  and  _210
REMARK   85  A    between atoms: _210  and  _211
REMARK   86  A    between atoms: _210  and  _213
REMARK   87  A    between atoms: _213  and  _214
REMARK   88  A    between atoms: _220  and  _221
REMARK   89  A    between atoms: _226  and  _228
REMARK   90  A    between atoms: _228  and  _229
REMARK   91  A    between atoms: _231  and  _233
REMARK   92  A    between atoms: _233  and  _234
REMARK   93  A    between atoms: _238  and  _239
REMARK   94  A    between atoms: _244  and  _246
REMARK   95  A    between atoms: _246  and  _247
REMARK   96  A    between atoms: _249  and  _251
REMARK   97  A    between atoms: _251  and  _252
REMARK   98  A    between atoms: _251  and  _254
REMARK   99  A    between atoms: _254  and  _255
REMARK  100  A    between atoms: _255  and  _256
REMARK  101  A    between atoms: _258  and  _260
REMARK  102  A    between atoms: _260  and  _261
REMARK  103  A    between atoms: _260  and  _263
REMARK  104  A    between atoms: _263  and  _264
REMARK  105  A    between atoms: _266  and  _268
REMARK  106  A    between atoms: _268  and  _269
REMARK  107  A    between atoms: _268  and  _271
REMARK  108  A    between atoms: _271  and  _272
REMARK  109  A    between atoms: _277  and  _279
REMARK  110  A    between atoms: _279  and  _280
REMARK  111  A    between atoms: _282  and  _284
REMARK  112  A    between atoms: _284  and  _285
REMARK  113  A    between atoms: _284  and  _287
REMARK  114  A    between atoms: _287  and  _288
REMARK  115  A    between atoms: _293  and  _295
REMARK  116  A    between atoms: _295  and  _296
REMARK  117  A    between atoms: _299  and  _301
REMARK  118  A    between atoms: _301  and  _302
REMARK  119  A    between atoms: _301  and  _304
REMARK  120  A    between atoms: _304  and  _305
REMARK  121  A    between atoms: _310  and  _312
REMARK  122  A    between atoms: _312  and  _313
REMARK  123  A    between atoms: _312  and  _315
REMARK  124  A    between atoms: _315  and  _316
REMARK  125  A    between atoms: _319  and  _321
REMARK  126  A    between atoms: _321  and  _322
REMARK  127  A    between atoms: _325  and  _326
REMARK  128  A    between atoms: _331  and  _333
REMARK  129  A    between atoms: _333  and  _334
REMARK  130  A    between atoms: _333  and  _336
REMARK  131  A    between atoms: _336  and  _337
REMARK  132  A    between atoms: _340  and  _342
REMARK  133  A    between atoms: _342  and  _343
REMARK  134  A    between atoms: _345  and  _347
REMARK  135  A    between atoms: _347  and  _348
REMARK  136  A    between atoms: _347  and  _350
REMARK  137  A    between atoms: _350  and  _351
REMARK  138  A    between atoms: _351  and  _352
REMARK  139  A    between atoms: _357  and  _359
REMARK  140  A    between atoms: _359  and  _360
REMARK  141  A    between atoms: _359  and  _362
REMARK  142  A    between atoms: _362  and  _363
REMARK  143  A    between atoms: _366  and  _368
REMARK  144  A    between atoms: _368  and  _369
REMARK  145  A    between atoms: _371  and  _373
REMARK  146  A    between atoms: _373  and  _374
REMARK  147  A    between atoms: _373  and  _376
REMARK  148  A    between atoms: _376  and  _377
REMARK  149  A    between atoms: _380  and  _382
REMARK  150  A    between atoms: _382  and  _383
REMARK  151  A    between atoms: _385  and  _387
REMARK  152  A    between atoms: _387  and  _388
REMARK  153  A    between atoms: _387  and  _390
REMARK  154  A    between atoms: _392  and  _394
REMARK  155  A    between atoms: _394  and  _395
REMARK  156  A    between atoms: _394  and  _397
REMARK  157  A    between atoms: _397  and  _398
REMARK  158  A    between atoms: _401  and  _403
REMARK  159  A    between atoms: _403  and  _404
REMARK  160  A    between atoms: _403  and  _406
REMARK  161  A    between atoms: _406  and  _407
REMARK  162  A    between atoms: _407  and  _408
REMARK  163  A    between atoms: _413  and  _415
REMARK  164  A    between atoms: _415  and  _416
REMARK  165  A    between atoms: _415  and  _418
REMARK  166  A    between atoms: _418  and  _419
REMARK  167  A    between atoms: _419  and  _420
REMARK  168  A    between atoms: _423  and  _425
REMARK  169  A    between atoms: _425  and  _426
REMARK  170  A    between atoms: _425  and  _428
REMARK  171  A    between atoms: _428  and  _429
REMARK  172  A    between atoms: _432  and  _434
REMARK  173  A    between atoms: _434  and  _435
REMARK  174  A    between atoms: _434  and  _437
REMARK  175  A    between atoms: _437  and  _438
REMARK  176  A    between atoms: _443  and  _444
REMARK  177  A    between atoms: _446  and  _448
REMARK  178  A    between atoms: _448  and  _449
REMARK  179  A    between atoms: _448  and  _451
REMARK  180  A    between atoms: _451  and  _452
REMARK  181  A    between atoms: _455  and  _457
REMARK  182  A    between atoms: _457  and  _458
REMARK  183  A    between atoms: _457  and  _460
REMARK  184  A    between atoms: _460  and  _461
REMARK  185  A    between atoms: _464  and  _466
REMARK  186  A    between atoms: _470  and  _472
REMARK  187  A    between atoms: _477  and  _480
REMARK  188  A    between atoms: _480  and  _481
REMARK  189  A    between atoms: _481  and  _482
REMARK  190  A    between atoms: _482  and  _483
REMARK  191  A    between atoms: _483  and  _484
REMARK  192  A    between atoms: _490  and  _493
REMARK  193  A    between atoms: _491  and  _497
REMARK  194  A    between atoms: _493  and  _494
REMARK  195  A    between atoms: _497  and  _499
REMARK  196  A    between atoms: _499  and  _500
REMARK  197  A    between atoms: _499  and  _502
REMARK  198  A    between atoms: _502  and  _503
REMARK  199  A    between atoms: _506  and  _508
REMARK  200  A    between atoms: _508  and  _509
REMARK  201  A    between atoms: _508  and  _511
REMARK  202  A    between atoms: _511  and  _512
REMARK  203  A    between atoms: _515  and  _517
REMARK  204  A    between atoms: _517  and  _518
REMARK  205  A    between atoms: _517  and  _520
REMARK  206  A    between atoms: _520  and  _521
REMARK  207  A    between atoms: _524  and  _526
REMARK  208  A    between atoms: _526  and  _527
REMARK  209  A    between atoms: _529  and  _531
REMARK  210  A    between atoms: _531  and  _532
REMARK  211  A    between atoms: _531  and  _534
REMARK  212  A    between atoms: _534  and  _535
REMARK  213  A    between atoms: _538  and  _540
REMARK  214  A    between atoms: _540  and  _541
REMARK  215  A    between atoms: _540  and  _543
REMARK  216  A    between atoms: _543  and  _544
REMARK  217  A    between atoms: _550  and  _552
REMARK  218  A    between atoms: _552  and  _553
REMARK  219  A    between atoms: _552  and  _555
REMARK  220  A    between atoms: _555  and  _556
REMARK  221  A    between atoms: _559  and  _561
REMARK  222  A    between atoms: _561  and  _562
REMARK  223  A    between atoms: _561  and  _564
REMARK  224  A    between atoms: _564  and  _565
REMARK  225  A    between atoms: _568  and  _570
REMARK  226  A    between atoms: _570  and  _571
REMARK  227  A    between atoms: _573  and  _575
REMARK  228  A    between atoms: _575  and  _576
REMARK  229  A    between atoms: _575  and  _578
REMARK  230  A    between atoms: _578  and  _579
REMARK  231  A    between atoms: _581  and  _583
REMARK  232  A    between atoms: _583  and  _584
REMARK  233  A    between atoms: _583  and  _586
REMARK  234  A    between atoms: _586  and  _587
REMARK  235  A    between atoms: _592  and  _594
REMARK  236  A    between atoms: _594  and  _595
REMARK  237  A    between atoms: _594  and  _597
REMARK  238  A    between atoms: _600  and  _602
REMARK  239  A    between atoms: _602  and  _603
REMARK  240  A    between atoms: _602  and  _605
REMARK  241  A    between atoms: _605  and  _606
REMARK  242  A    between atoms: _611  and  _613
REMARK  243  A    between atoms: _613  and  _614
REMARK  244  A    between atoms: _616  and  _618
REMARK  245  A    between atoms: _618  and  _619
REMARK  246  A    between atoms: _618  and  _621
REMARK  247  A    between atoms: _621  and  _622
REMARK  248  A    between atoms: _627  and  _629
REMARK  249  A    between atoms: _629  and  _630
REMARK                            x       y       z     vdW  Elec       q    Type
REMARK                         _______ _______ _______ _____ _____    ______ ____
ROOT
ATOM      1  C   THR A   1      11.437  77.702  32.357  0.00  0.00    +0.241 C 
ATOM      2  N   HIS A   2      12.455  77.775  33.200  0.00  0.00    -0.298 N 
ATOM      3  H   HIS A   2      12.628  78.680  33.682  0.00  0.00    +0.150 HD
ATOM      4  O   THR A   1      11.302  76.660  31.770  0.00  0.00    -0.274 OA
ENDROOT
BRANCH   1   5
ATOM      5  CA  THR A   1      10.559  78.928  32.030  0.00  0.00    +0.172 C 
BRANCH   5   6
ATOM      6  N   THR A   1      10.680  79.883  33.108  0.00  0.00    -0.236 NA
ATOM      7  H   THR A   1      11.132  80.805  32.940  0.00  0.00    +0.142 HD
ENDBRANCH   5   6
BRANCH   5   8
ATOM      8  CB  THR A   1      11.007  79.658  30.746  0.00  0.00    +0.135 C 
ATOM      9  CG2 THR A   1      10.018  80.719  30.364  0.00  0.00    +0.034 C 
BRANCH   8  10
ATOM     10  OG1 THR A   1      12.300  80.246  30.974  0.00  0.00    -0.383 OA
ATOM     11  HG1 THR A   1      12.950  79.534  31.200  0.00  0.00    +0.210 HD
ENDBRANCH   8  10
ENDBRANCH   5   8
ENDBRANCH   1   5
BRANCH   2  12
ATOM     12  CA  HIS A   2      13.347  76.661  33.492  0.00  0.00    +0.143 C 
BRANCH  12  13
ATOM     13  C   HIS A   2      13.242  76.219  34.956  0.00  0.00    +0.227 C 
ATOM     14  O   HIS A   2      14.192  75.587  35.418  0.00  0.00    -0.286 OA
ENDBRANCH  12  13
BRANCH  12  15
ATOM     15  CB  HIS A   2      14.768  77.086  33.201  0.00  0.00    +0.075 C 
BRANCH  15  16
ATOM     16  CG  HIS A   2      15.000  77.407  31.739  0.00  0.00    +0.082 A 
ATOM     17  CD2 HIS A   2      15.966  76.774  30.984  0.00  0.00    +0.115 A 
ATOM     18  NE2 HIS A   2      15.814  77.236  29.773  0.00  0.00    -0.221 NA
ATOM     19  CE1 HIS A   2      14.826  78.123  29.753  0.00  0.00    +0.199 A 
ATOM     20  ND1 HIS A   2      14.316  78.247  30.946  0.00  0.00    -0.227 NA
ENDBRANCH  15  16
ENDBRANCH  12  15
ENDBRANCH   2  12
TORSDOF 8
REMARK  Name = ../refined-set-2016/1tkb/1tkb_pocket.pdb
REMARK  249 active torsions:
REMARK  status: ('A' for Active; 'I' for Inactive)
REMARK    1  A    between atoms: _1  and  _3
REMARK    2  A    between atoms: _3  and  _4
REMARK    3  A    between atoms: _3  and  _6
REMARK    4  A    between atoms: _6  and  _7
REMARK    5  A    between atoms: _9  and  _11
REMARK    6  A    between atoms: _11  and  _12
REMARK    7  A    between atoms: _15  and  _17
REMARK    8  A    between atoms: _17  and  _18
REMARK    9  A    between atoms: _17  and  _20
REMARK   10  A    between atoms: _20  and  _21
REMARK   11  A    between atoms: _24  and  _26
REMARK   12  A    between atoms: _26  and  _27
REMARK   13  A    between atoms: _26  and  _29
REMARK   14  A    between atoms: _29  and  _30
REMARK   15  A    between atoms: _33  and  _35
REMARK   16  A    between atoms: _35  and  _36
REMARK   17  A    between atoms: _35  and  _38
REMARK   18  A    between atoms: _38  and  _39
REMARK   19  A    between atoms: _42  and  _44
REMARK   20  A    between atoms: _44  and  _45
REMARK   21  A    between atoms: _44  and  _47
REMARK   22  A    between atoms: _47  and  _48
REMARK   23  A    between atoms: _50  and  _52
REMARK   24  A    between atoms: _52  and  _53
REMARK   25  A    between atoms: _52  and  _55
REMARK   26  A    between atoms: _55  and  _56
REMARK   27  A    between atoms: _61  and  _63
REMARK   28  A    between atoms: _63  and  _64
REMARK   29  A    between atoms: _66  and  _68
REMARK   30  A    between atoms: _68  and  _69
REMARK   31  A    between atoms: _68  and  _71
REMARK   32  A    between atoms: _71  and  _72
REMARK   33  A    between atoms: _75  and  _77
REMARK   34  A    between atoms: _77  and  _78
REMARK   35  A    between atoms: _77  and  _80
REMARK   36  A    between atoms: _80  and  _81
REMARK   37  A    between atoms: _81  and  _82
REMARK   38  A    between atoms: _82  and  _83
REMARK   39  A    between atoms: _92  and  _94
REMARK   40  A    between atoms: _94  and  _95
REMARK   41  A    between atoms: _94  and  _97
REMARK   42  A    between atoms: _97  and  _98
REMARK   43  A    between atoms: _98  and  _99
REMARK   44  A    between atoms: _102  and  _104
REMARK   45  A    between atoms: _104  and  _105
REMARK   46  A    between atoms: _104  and  _107
REMARK   47  A    between atoms: _107  and  _108
REMARK   48  A    between atoms: _113  and  _115
REMARK   49  A    between atoms: _115  and  _116
REMARK   50  A    between atoms: _115  and  _118
REMARK   51  A    between atoms: _118  and  _119
REMARK   52  A    between atoms: _122  and  _124
REMARK   53  A    between atoms: _124  and  _125
REMARK   54  A    between atoms: _124  and  _127
REMARK   55  A    between atoms: _127  and  _128
REMARK   56  A    between atoms: _134  and  _136
REMARK   57  A    between atoms: _136  and  _137
REMARK   58  A    between atoms: _136  and  _139
REMARK   59  A    between atoms: _139  and  _140
REMARK   60  A    between atoms: _145  and  _147
REMARK   61  A    between atoms: _147  and  _148
REMARK   62  A    between atoms: _147  and  _150
REMARK   63  A    between atoms: _150  and  _151
REMARK   64  A    between atoms: _157  and  _159
REMARK   65  A    between atoms: _159  and  _160
REMARK   66  A    between atoms: _159  and  _162
REMARK   67  A    between atoms: _165  and  _167
REMARK   68  A    between atoms: _167  and  _168
REMARK   69  A    between atoms: _167  and  _170
REMARK   70  A    between atoms: _170  and  _171
REMARK   71  A    between atoms: _176  and  _177
REMARK   72  A    between atoms: _179  and  _181
REMARK   73  A    between atoms: _181  and  _182
REMARK   74  A    between atoms: _181  and  _184
REMARK   75  A    between atoms: _184  and  _185
REMARK   76  A    between atoms: _188  and  _190
REMARK   77  A    between atoms: _190  and  _191
REMARK   78  A    between atoms: _190  and  _193
REMARK   79  A    between atoms: _193  and  _194
REMARK   80  A    between atoms: _197  and  _199
REMARK   81  A    between atoms: _199  and  _200
REMARK   82  A    between atoms: _199  and  _202
REMARK   83  A    between atoms: _202  and  _203
REMARK   84  A    between atoms: _208  and  _210
REMARK   85  A    between atoms: _210  and  _211
REMARK   86  A    between atoms: _210  and  _213
REMARK   87  A    between atoms: _213  and  _214
REMARK   88  A    between atoms: _220  and  _221
REMARK   89  A    between atoms: _226  and  _228
REMARK   90  A    between atoms: _228  and  _229
REMARK   91  A    between atoms: _231  and  _233
REMARK   92  A    between atoms: _233  and  _234
REMARK   93  A    between atoms: _238  and  _239
REMARK   94  A    between atoms: _244  and  _246
REMARK   95  A    between atoms: _246  and  _247
REMARK   96  A    between atoms: _249  and  _251
REMARK   97  A    between atoms: _251  and  _252
REMARK   98  A    between atoms: _251  and  _254
REMARK   99  A    between atoms: _254  and  _255
REMARK  100  A    between atoms: _255  and  _256
REMARK  101  A    between atoms: _258  and  _260
REMARK  102  A    between atoms: _260  and  _261
REMARK  103  A    between atoms: _260  and  _263
REMARK  104  A    between atoms: _263  and  _264
REMARK  105  A    between atoms: _266  and  _268
REMARK  106  A    between atoms: _268  and  _269
REMARK  107  A    between atoms: _268  and  _271
REMARK  108  A    between atoms: _271  and  _272
REMARK  109  A    between atoms: _277  and  _279
REMARK  110  A    between atoms: _279  and  _280
REMARK  111  A    between atoms: _282  and  _284
REMARK  112  A    between atoms: _284  and  _285
REMARK  113  A    between atoms: _284  and  _287
REMARK  114  A    between atoms: _287  and  _288
REMARK  115  A    between atoms: _293  and  _295
REMARK  116  A    between atoms: _295  and  _296
REMARK  117  A    between atoms: _299  and  _301
REMARK  118  A    between atoms: _301  and  _302
REMARK  119  A    between atoms: _301  and  _304
REMARK  120  A    between atoms: _304  and  _305
REMARK  121  A    between atoms: _310  and  _312
REMARK  122  A    between atoms: _312  and  _313
REMARK  123  A    between atoms: _312  and  _315
REMARK  124  A    between atoms: _315  and  _316
REMARK  125  A    between atoms: _319  and  _321
REMARK  126  A    between atoms: _321  and  _322
REMARK  127  A    between atoms: _325  and  _326
REMARK  128  A    between atoms: _331  and  _333
REMARK  129  A    between atoms: _333  and  _334
REMARK  130  A    between atoms: _333  and  _336
REMARK  131  A    between atoms: _336  and  _337
REMARK  132  A    between atoms: _340  and  _342
REMARK  133  A    between atoms: _342  and  _343
REMARK  134  A    between atoms: _345  and  _347
REMARK  135  A    between atoms: _347  and  _348
REMARK  136  A    between atoms: _347  and  _350
REMARK  137  A    between atoms: _350  and  _351
REMARK  138  A    between atoms: _351  and  _352
REMARK  139  A    between atoms: _357  and  _359
REMARK  140  A    between atoms: _359  and  _360
REMARK  141  A    between atoms: _359  and  _362
REMARK  142  A    between atoms: _362  and  _363
REMARK  143  A    between atoms: _366  and  _368
REMARK  144  A    between atoms: _368  and  _369
REMARK  145  A    between atoms: _371  and  _373
REMARK  146  A    between atoms: _373  and  _374
REMARK  147  A    between atoms: _373  and  _376
REMARK  148  A    between atoms: _376  and  _377
REMARK  149  A    between atoms: _380  and  _382
REMARK  150  A    between atoms: _382  and  _383
REMARK  151  A    between atoms: _385  and  _387
REMARK  152  A    between atoms: _387  and  _388
REMARK  153  A    between atoms: _387  and  _390
REMARK  154  A    between atoms: _392  and  _394
REMARK  155  A    between atoms: _394  and  _395
REMARK  156  A    between atoms: _394  and  _397
REMARK  157  A    between atoms: _397  and  _398
REMARK  158  A    between atoms: _401  and  _403
REMARK  159  A    between atoms: _403  and  _404
REMARK  160  A    between atoms: _403  and  _406
REMARK  161  A    between atoms: _406  and  _407
REMARK  162  A    between atoms: _407  and  _408
REMARK  163  A    between atoms: _413  and  _415
REMARK  164  A    between atoms: _415  and  _416
REMARK  165  A    between atoms: _415  and  _418
REMARK  166  A    between atoms: _418  and  _419
REMARK  167  A    between atoms: _419  and  _420
REMARK  168  A    between atoms: _423  and  _425
REMARK  169  A    between atoms: _425  and  _426
REMARK  170  A    between atoms: _425  and  _428
REMARK  171  A    between atoms: _428  and  _429
REMARK  172  A    between atoms: _432  and  _434
REMARK  173  A    between atoms: _434  and  _435
REMARK  174  A    between atoms: _434  and  _437
REMARK  175  A    between atoms: _437  and  _438
REMARK  176  A    between atoms: _443  and  _444
REMARK  177  A    between atoms: _446  and  _448
REMARK  178  A    between atoms: _448  and  _449
REMARK  179  A    between atoms: _448  and  _451
REMARK  180  A    between atoms: _451  and  _452
REMARK  181  A    between atoms: _455  and  _457
REMARK  182  A    between atoms: _457  and  _458
REMARK  183  A    between atoms: _457  and  _460
REMARK  184  A    between atoms: _460  and  _461
REMARK  185  A    between atoms: _464  and  _466
REMARK  186  A    between atoms: _470  and  _472
REMARK  187  A    between atoms: _477  and  _480
REMARK  188  A    between atoms: _480  and  _481
REMARK  189  A    between atoms: _481  and  _482
REMARK  190  A    between atoms: _482  and  _483
REMARK  191  A    between atoms: _483  and  _484
REMARK  192  A    between atoms: _490  and  _493
REMARK  193  A    between atoms: _491  and  _497
REMARK  194  A    between atoms: _493  and  _494
REMARK  195  A    between atoms: _497  and  _499
REMARK  196  A    between atoms: _499  and  _500
REMARK  197  A    between atoms: _499  and  _502
REMARK  198  A    between atoms: _502  and  _503
REMARK  199  A    between atoms: _506  and  _508
REMARK  200  A    between atoms: _508  and  _509
REMARK  201  A    between atoms: _508  and  _511
REMARK  202  A    between atoms: _511  and  _512
REMARK  203  A    between atoms: _515  and  _517
REMARK  204  A    between atoms: _517  and  _518
REMARK  205  A    between atoms: _517  and  _520
REMARK  206  A    between atoms: _520  and  _521
REMARK  207  A    between atoms: _524  and  _526
REMARK  208  A    between atoms: _526  and  _527
REMARK  209  A    between atoms: _529  and  _531
REMARK  210  A    between atoms: _531  and  _532
REMARK  211  A    between atoms: _531  and  _534
REMARK  212  A    between atoms: _534  and  _535
REMARK  213  A    between atoms: _538  and  _540
REMARK  214  A    between atoms: _540  and  _541
REMARK  215  A    between atoms: _540  and  _543
REMARK  216  A    between atoms: _543  and  _544
REMARK  217  A    between atoms: _550  and  _552
REMARK  218  A    between atoms: _552  and  _553
REMARK  219  A    between atoms: _552  and  _555
REMARK  220  A    between atoms: _555  and  _556
REMARK  221  A    between atoms: _559  and  _561
REMARK  222  A    between atoms: _561  and  _562
REMARK  223  A    between atoms: _561  and  _564
REMARK  224  A    between atoms: _564  and  _565
REMARK  225  A    between atoms: _568  and  _570
REMARK  226  A    between atoms: _570  and  _571
REMARK  227  A    between atoms: _573  and  _575
REMARK  228  A    between atoms: _575  and  _576
REMARK  229  A    between atoms: _575  and  _578
REMARK  230  A    between atoms: _578  and  _579
REMARK  231  A    between atoms: _581  and  _583
REMARK  232  A    between atoms: _583  and  _584
REMARK  233  A    between atoms: _583  and  _586
REMARK  234  A    between atoms: _586  and  _587
REMARK  235  A    between atoms: _592  and  _594
REMARK  236  A    between atoms: _594  and  _595
REMARK  237  A    between atoms: _594  and  _597
REMARK  238  A    between atoms: _600  and  _602
REMARK  239  A    between atoms: _602  and  _603
REMARK  240  A    between atoms: _602  and  _605
REMARK  241  A    between atoms: _605  and  _606
REMARK  242  A    between atoms: _611  and  _613
REMARK  243  A    between atoms: _613  and  _614
REMARK  244  A    between atoms: _616  and  _618
REMARK  245  A    between atoms: _618  and  _619
REMARK  246  A    between atoms: _618  and  _621
REMARK  247  A    between atoms: _621  and  _622
REMARK  248  A    between atoms: _627  and  _629
REMARK  249  A    between atoms: _629  and  _630
REMARK                            x       y       z     vdW  Elec       q    Type
REMARK                         _______ _______ _______ _____ _____    ______ ____
ROOT
ATOM      1  C   PRO A   2      26.677  85.546  23.026  0.00  0.00    +0.241 C 
ATOM      2  N   GLY A   3      26.974  84.291  22.741  0.00  0.00    -0.295 N 
ATOM      3  H   GLY A   3      27.048  83.629  23.539  0.00  0.00    +0.150 HD
ATOM      4  O   PRO A   2      26.426  86.381  22.148  0.00  0.00    -0.273 OA
ENDROOT
BRANCH   1  10
ATOM      5  C   HIS A   1      24.845  84.572  25.659  0.00  0.00    +0.242 C 
ATOM      6  N   PRO A   2      26.128  84.746  25.380  0.00  0.00    -0.272 N 
ATOM      7  CD  PRO A   2      27.189  84.082  26.129  0.00  0.00    +0.094 C 
ATOM      8  CG  PRO A   2      28.430  84.761  25.550  0.00  0.00    +0.024 C 
ATOM      9  CB  PRO A   2      27.979  86.137  25.123  0.00  0.00    +0.031 C 
ATOM     10  CA  PRO A   2      26.626  85.831  24.527  0.00  0.00    +0.152 C 
ATOM     11  O   HIS A   1      23.976  85.313  25.187  0.00  0.00    -0.273 OA
BRANCH   5  12
ATOM     12  CA  HIS A   1      24.436  83.477  26.626  0.00  0.00    +0.151 C 
BRANCH  12  13
ATOM     13  N   HIS A   1      23.970  84.094  27.857  0.00  0.00    -0.238 NA
ATOM     14  H   HIS A   1      23.148  84.729  27.814  0.00  0.00    +0.142 HD
ENDBRANCH  12  13
BRANCH  12  15
ATOM     15  CB  HIS A   1      23.340  82.705  25.980  0.00  0.00    +0.074 C 
BRANCH  15  16
ATOM     16  CG  HIS A   1      22.550  81.886  26.963  0.00  0.00    +0.082 A 
ATOM     17  ND1 HIS A   1      21.398  82.237  27.500  0.00  0.00    -0.227 NA
ATOM     18  CE1 HIS A   1      21.047  81.286  28.330  0.00  0.00    +0.199 A 
ATOM     19  NE2 HIS A   1      21.971  80.359  28.302  0.00  0.00    -0.221 NA
ATOM     20  CD2 HIS A   1      22.919  80.676  27.472  0.00  0.00    +0.115 A 
ENDBRANCH  15  16
ENDBRANCH  12  15
ENDBRANCH   5  12
ENDBRANCH   1  10
BRANCH   2  21
ATOM     21  CA  GLY A   3      27.207  83.752  21.408  0.00  0.00    +0.176 C 
BRANCH  21  22
ATOM     22  C   GLY A   3      26.193  83.975  20.313  0.00  0.00    +0.243 C 
ATOM     23  N   ALA A   4      24.920  83.716  20.559  0.00  0.00    -0.297 N 
ATOM     24  H   ALA A   4      24.620  83.397  21.502  0.00  0.00    +0.150 HD
ATOM     25  O   GLY A   3      26.582  84.347  19.204  0.00  0.00    -0.273 OA
BRANCH  23  26
ATOM     26  CA  ALA A   4      23.948  83.882  19.497  0.00  0.00    +0.149 C 
ATOM     27  CB  ALA A   4      22.637  83.114  19.780  0.00  0.00    +0.031 C 
BRANCH  26  28
ATOM     28  C   ALA A   4      23.637  85.346  19.317  0.00  0.00    +0.244 C 
ATOM     29  N   PRO A   5      23.376  86.250  20.272  0.00  0.00    -0.273 N 
ATOM     30  CD  PRO A   5      23.143  85.968  21.699  0.00  0.00    +0.094 C 
ATOM     31  CG  PRO A   5      22.938  87.311  22.373  0.00  0.00    +0.024 C 
ATOM     32  CB  PRO A   5      23.858  88.178  21.571  0.00  0.00    +0.030 C 
ATOM     33  CA  PRO A   5      23.638  87.693  20.122  0.00  0.00    +0.140 C 
ATOM     34  O   ALA A   4      23.720  85.711  18.168  0.00  0.00    -0.273 OA
BRANCH  33  35
ATOM     35  C   PRO A   5      24.788  88.102  19.178  0.00  0.00    +0.227 C 
ATOM     36  O   PRO A   5      24.494  88.765  18.193  0.00  0.00    -0.286 OA
ENDBRANCH  33  35
ENDBRANCH  26  28
ENDBRANCH  23  26
ENDBRANCH  21  22
ENDBRANCH   2  21
TORSDOF 10
REMARK  Name = ../refined-set-2016/1tkb/1tkb_pocket.pdb
REMARK  249 active torsions:
REMARK  status: ('A' for Active; 'I' for Inactive)
REMARK    1  A    between atoms: _1  and  _3
REMARK    2  A    between atoms: _3  and  _4
REMARK    3  A    between atoms: _3  and  _6
REMARK    4  A    between atoms: _6  and  _7
REMARK    5  A    between atoms: _9  and  _11
REMARK    6  A    between atoms: _11  and  _12
REMARK    7  A    between atoms: _15  and  _17
REMARK    8  A    between atoms: _17  and  _18
REMARK    9  A    between atoms: _17  and  _20
REMARK   10  A    between atoms: _20  and  _21
REMARK   11  A    between atoms: _24  and  _26
REMARK   12  A    between atoms: _26  and  _27
REMARK   13  A    between atoms: _26  and  _29
REMARK   14  A    between atoms: _29  and  _30
REMARK   15  A    between atoms: _33  and  _35
REMARK   16  A    between atoms: _35  and  _36
REMARK   17  A    between atoms: _35  and  _38
REMARK   18  A    between atoms: _38  and  _39
REMARK   19  A    between atoms: _42  and  _44
REMARK   20  A    between atoms: _44  and  _45
REMARK   21  A    between atoms: _44  and  _47
REMARK   22  A    between atoms: _47  and  _48
REMARK   23  A    between atoms: _50  and  _52
REMARK   24  A    between atoms: _52  and  _53
REMARK   25  A    between atoms: _52  and  _55
REMARK   26  A    between atoms: _55  and  _56
REMARK   27  A    between atoms: _61  and  _63
REMARK   28  A    between atoms: _63  and  _64
REMARK   29  A    between atoms: _66  and  _68
REMARK   30  A    between atoms: _68  and  _69
REMARK   31  A    between atoms: _68  and  _71
REMARK   32  A    between atoms: _71  and  _72
REMARK   33  A    between atoms: _75  and  _77
REMARK   34  A    between atoms: _77  and  _78
REMARK   35  A    between atoms: _77  and  _80
REMARK   36  A    between atoms: _80  and  _81
REMARK   37  A    between atoms: _81  and  _82
REMARK   38  A    between atoms: _82  and  _83
REMARK   39  A    between atoms: _92  and  _94
REMARK   40  A    between atoms: _94  and  _95
REMARK   41  A    between atoms: _94  and  _97
REMARK   42  A    between atoms: _97  and  _98
REMARK   43  A    between atoms: _98  and  _99
REMARK   44  A    between atoms: _102  and  _104
REMARK   45  A    between atoms: _104  and  _105
REMARK   46  A    between atoms: _104  and  _107
REMARK   47  A    between atoms: _107  and  _108
REMARK   48  A    between atoms: _113  and  _115
REMARK   49  A    between atoms: _115  and  _116
REMARK   50  A    between atoms: _115  and  _118
REMARK   51  A    between atoms: _118  and  _119
REMARK   52  A    between atoms: _122  and  _124
REMARK   53  A    between atoms: _124  and  _125
REMARK   54  A    between atoms: _124  and  _127
REMARK   55  A    between atoms: _127  and  _128
REMARK   56  A    between atoms: _134  and  _136
REMARK   57  A    between atoms: _136  and  _137
REMARK   58  A    between atoms: _136  and  _139
REMARK   59  A    between atoms: _139  and  _140
REMARK   60  A    between atoms: _145  and  _147
REMARK   61  A    between atoms: _147  and  _148
REMARK   62  A    between atoms: _147  and  _150
REMARK   63  A    between atoms: _150  and  _151
REMARK   64  A    between atoms: _157  and  _159
REMARK   65  A    between atoms: _159  and  _160
REMARK   66  A    between atoms: _159  and  _162
REMARK   67  A    between atoms: _165  and  _167
REMARK   68  A    between atoms: _167  and  _168
REMARK   69  A    between atoms: _167  and  _170
REMARK   70  A    between atoms: _170  and  _171
REMARK   71  A    between atoms: _176  and  _177
REMARK   72  A    between atoms: _179  and  _181
REMARK   73  A    between atoms: _181  and  _182
REMARK   74  A    between atoms: _181  and  _184
REMARK   75  A    between atoms: _184  and  _185
REMARK   76  A    between atoms: _188  and  _190
REMARK   77  A    between atoms: _190  and  _191
REMARK   78  A    between atoms: _190  and  _193
REMARK   79  A    between atoms: _193  and  _194
REMARK   80  A    between atoms: _197  and  _199
REMARK   81  A    between atoms: _199  and  _200
REMARK   82  A    between atoms: _199  and  _202
REMARK   83  A    between atoms: _202  and  _203
REMARK   84  A    between atoms: _208  and  _210
REMARK   85  A    between atoms: _210  and  _211
REMARK   86  A    between atoms: _210  and  _213
REMARK   87  A    between atoms: _213  and  _214
REMARK   88  A    between atoms: _220  and  _221
REMARK   89  A    between atoms: _226  and  _228
REMARK   90  A    between atoms: _228  and  _229
REMARK   91  A    between atoms: _231  and  _233
REMARK   92  A    between atoms: _233  and  _234
REMARK   93  A    between atoms: _238  and  _239
REMARK   94  A    between atoms: _244  and  _246
REMARK   95  A    between atoms: _246  and  _247
REMARK   96  A    between atoms: _249  and  _251
REMARK   97  A    between atoms: _251  and  _252
REMARK   98  A    between atoms: _251  and  _254
REMARK   99  A    between atoms: _254  and  _255
REMARK  100  A    between atoms: _255  and  _256
REMARK  101  A    between atoms: _258  and  _260
REMARK  102  A    between atoms: _260  and  _261
REMARK  103  A    between atoms: _260  and  _263
REMARK  104  A    between atoms: _263  and  _264
REMARK  105  A    between atoms: _266  and  _268
REMARK  106  A    between atoms: _268  and  _269
REMARK  107  A    between atoms: _268  and  _271
REMARK  108  A    between atoms: _271  and  _272
REMARK  109  A    between atoms: _277  and  _279
REMARK  110  A    between atoms: _279  and  _280
REMARK  111  A    between atoms: _282  and  _284
REMARK  112  A    between atoms: _284  and  _285
REMARK  113  A    between atoms: _284  and  _287
REMARK  114  A    between atoms: _287  and  _288
REMARK  115  A    between atoms: _293  and  _295
REMARK  116  A    between atoms: _295  and  _296
REMARK  117  A    between atoms: _299  and  _301
REMARK  118  A    between atoms: _301  and  _302
REMARK  119  A    between atoms: _301  and  _304
REMARK  120  A    between atoms: _304  and  _305
REMARK  121  A    between atoms: _310  and  _312
REMARK  122  A    between atoms: _312  and  _313
REMARK  123  A    between atoms: _312  and  _315
REMARK  124  A    between atoms: _315  and  _316
REMARK  125  A    between atoms: _319  and  _321
REMARK  126  A    between atoms: _321  and  _322
REMARK  127  A    between atoms: _325  and  _326
REMARK  128  A    between atoms: _331  and  _333
REMARK  129  A    between atoms: _333  and  _334
REMARK  130  A    between atoms: _333  and  _336
REMARK  131  A    between atoms: _336  and  _337
REMARK  132  A    between atoms: _340  and  _342
REMARK  133  A    between atoms: _342  and  _343
REMARK  134  A    between atoms: _345  and  _347
REMARK  135  A    between atoms: _347  and  _348
REMARK  136  A    between atoms: _347  and  _350
REMARK  137  A    between atoms: _350  and  _351
REMARK  138  A    between atoms: _351  and  _352
REMARK  139  A    between atoms: _357  and  _359
REMARK  140  A    between atoms: _359  and  _360
REMARK  141  A    between atoms: _359  and  _362
REMARK  142  A    between atoms: _362  and  _363
REMARK  143  A    between atoms: _366  and  _368
REMARK  144  A    between atoms: _368  and  _369
REMARK  145  A    between atoms: _371  and  _373
REMARK  146  A    between atoms: _373  and  _374
REMARK  147  A    between atoms: _373  and  _376
REMARK  148  A    between atoms: _376  and  _377
REMARK  149  A    between atoms: _380  and  _382
REMARK  150  A    between atoms: _382  and  _383
REMARK  151  A    between atoms: _385  and  _387
REMARK  152  A    between atoms: _387  and  _388
REMARK  153  A    between atoms: _387  and  _390
REMARK  154  A    between atoms: _392  and  _394
REMARK  155  A    between atoms: _394  and  _395
REMARK  156  A    between atoms: _394  and  _397
REMARK  157  A    between atoms: _397  and  _398
REMARK  158  A    between atoms: _401  and  _403
REMARK  159  A    between atoms: _403  and  _404
REMARK  160  A    between atoms: _403  and  _406
REMARK  161  A    between atoms: _406  and  _407
REMARK  162  A    between atoms: _407  and  _408
REMARK  163  A    between atoms: _413  and  _415
REMARK  164  A    between atoms: _415  and  _416
REMARK  165  A    between atoms: _415  and  _418
REMARK  166  A    between atoms: _418  and  _419
REMARK  167  A    between atoms: _419  and  _420
REMARK  168  A    between atoms: _423  and  _425
REMARK  169  A    between atoms: _425  and  _426
REMARK  170  A    between atoms: _425  and  _428
REMARK  171  A    between atoms: _428  and  _429
REMARK  172  A    between atoms: _432  and  _434
REMARK  173  A    between atoms: _434  and  _435
REMARK  174  A    between atoms: _434  and  _437
REMARK  175  A    between atoms: _437  and  _438
REMARK  176  A    between atoms: _443  and  _444
REMARK  177  A    between atoms: _446  and  _448
REMARK  178  A    between atoms: _448  and  _449
REMARK  179  A    between atoms: _448  and  _451
REMARK  180  A    between atoms: _451  and  _452
REMARK  181  A    between atoms: _455  and  _457
REMARK  182  A    between atoms: _457  and  _458
REMARK  183  A    between atoms: _457  and  _460
REMARK  184  A    between atoms: _460  and  _461
REMARK  185  A    between atoms: _464  and  _466
REMARK  186  A    between atoms: _470  and  _472
REMARK  187  A    between atoms: _477  and  _480
REMARK  188  A    between atoms: _480  and  _481
REMARK  189  A    between atoms: _481  and  _482
REMARK  190  A    between atoms: _482  and  _483
REMARK  191  A    between atoms: _483  and  _484
REMARK  192  A    between atoms: _490  and  _493
REMARK  193  A    between atoms: _491  and  _497
REMARK  194  A    between atoms: _493  and  _494
REMARK  195  A    between atoms: _497  and  _499
REMARK  196  A    between atoms: _499  and  _500
REMARK  197  A    between atoms: _499  and  _502
REMARK  198  A    between atoms: _502  and  _503
REMARK  199  A    between atoms: _506  and  _508
REMARK  200  A    between atoms: _508  and  _509
REMARK  201  A    between atoms: _508  and  _511
REMARK  202  A    between atoms: _511  and  _512
REMARK  203  A    between atoms: _515  and  _517
REMARK  204  A    between atoms: _517  and  _518
REMARK  205  A    between atoms: _517  and  _520
REMARK  206  A    between atoms: _520  and  _521
REMARK  207  A    between atoms: _524  and  _526
REMARK  208  A    between atoms: _526  and  _527
REMARK  209  A    between atoms: _529  and  _531
REMARK  210  A    between atoms: _531  and  _532
REMARK  211  A    between atoms: _531  and  _534
REMARK  212  A    between atoms: _534  and  _535
REMARK  213  A    between atoms: _538  and  _540
REMARK  214  A    between atoms: _540  and  _541
REMARK  215  A    between atoms: _540  and  _543
REMARK  216  A    between atoms: _543  and  _544
REMARK  217  A    between atoms: _550  and  _552
REMARK  218  A    between atoms: _552  and  _553
REMARK  219  A    between atoms: _552  and  _555
REMARK  220  A    between atoms: _555  and  _556
REMARK  221  A    between atoms: _559  and  _561
REMARK  222  A    between atoms: _561  and  _562
REMARK  223  A    between atoms: _561  and  _564
REMARK  224  A    between atoms: _564  and  _565
REMARK  225  A    between atoms: _568  and  _570
REMARK  226  A    between atoms: _570  and  _571
REMARK  227  A    between atoms: _573  and  _575
REMARK  228  A    between atoms: _575  and  _576
REMARK  229  A    between atoms: _575  and  _578
REMARK  230  A    between atoms: _578  and  _579
REMARK  231  A    between atoms: _581  and  _583
REMARK  232  A    between atoms: _583  and  _584
REMARK  233  A    between atoms: _583  and  _586
REMARK  234  A    between atoms: _586  and  _587
REMARK  235  A    between atoms: _592  and  _594
REMARK  236  A    between atoms: _594  and  _595
REMARK  237  A    between atoms: _594  and  _597
REMARK  238  A    between atoms: _600  and  _602
REMARK  239  A    between atoms: _602  and  _603
REMARK  240  A    between atoms: _602  and  _605
REMARK  241  A    between atoms: _605  and  _606
REMARK  242  A    between atoms: _611  and  _613
REMARK  243  A    between atoms: _613  and  _614
REMARK  244  A    between atoms: _616  and  _618
REMARK  245  A    between atoms: _618  and  _619
REMARK  246  A    between atoms: _618  and  _621
REMARK  247  A    between atoms: _621  and  _622
REMARK  248  A    between atoms: _627  and  _629
REMARK  249  A    between atoms: _629  and  _630
REMARK                            x       y       z     vdW  Elec       q    Type
REMARK                         _______ _______ _______ _____ _____    ______ ____
ROOT
ATOM      1  C   GLY A   1      25.443  86.440  14.807  0.00  0.00    +0.240 C 
ATOM      2  N   MET A   2      24.324  86.630  15.536  0.00  0.00    -0.298 N 
ATOM      3  H   MET A   2      24.359  86.448  16.559  0.00  0.00    +0.150 HD
ATOM      4  O   GLY A   1      25.536  86.681  13.596  0.00  0.00    -0.274 OA
ENDROOT
BRANCH   1   5
ATOM      5  CA  GLY A   1      26.675  85.918  15.535  0.00  0.00    +0.169 C 
BRANCH   5   6
ATOM      6  N   GLY A   1      26.807  86.444  16.883  0.00  0.00    -0.236 NA
ATOM      7  H   GLY A   1      26.747  85.800  17.697  0.00  0.00    +0.142 HD
ENDBRANCH   5   6
ENDBRANCH   1   5
BRANCH   2   8
ATOM      8  CA  MET A   2      23.057  87.083  14.945  0.00  0.00    +0.138 C 
BRANCH   8   9
ATOM      9  C   MET A   2      22.753  88.582  14.826  0.00  0.00    +0.227 C 
ATOM     10  O   MET A   2      21.647  89.012  14.422  0.00  0.00    -0.286 OA
ENDBRANCH   8   9
BRANCH   8  11
ATOM     11  CB  MET A   2      21.848  86.488  15.690  0.00  0.00    +0.039 C 
BRANCH  11  12
ATOM     12  CG  MET A   2      21.563  85.077  15.321  0.00  0.00    +0.060 C 
BRANCH  12  13
ATOM     13  SD  MET A   2      19.877  84.542  15.712  0.00  0.00    -0.139 S 
ATOM     14  CE  MET A   2      19.268  84.478  14.049  0.00  0.00    +0.069 C 
ENDBRANCH  12  13
ENDBRANCH  11  12
ENDBRANCH   8  11
ENDBRANCH   2   8
TORSDOF 7
REMARK  Name = ../refined-set-2016/1tkb/1tkb_pocket.pdb
REMARK  249 active torsions:
REMARK  status: ('A' for Active; 'I' for Inactive)
REMARK    1  A    between atoms: _1  and  _3
REMARK    2  A    between atoms: _3  and  _4
REMARK    3  A    between atoms: _3  and  _6
REMARK    4  A    between atoms: _6  and  _7
REMARK    5  A    between atoms: _9  and  _11
REMARK    6  A    between atoms: _11  and  _12
REMARK    7  A    between atoms: _15  and  _17
REMARK    8  A    between atoms: _17  and  _18
REMARK    9  A    between atoms: _17  and  _20
REMARK   10  A    between atoms: _20  and  _21
REMARK   11  A    between atoms: _24  and  _26
REMARK   12  A    between atoms: _26  and  _27
REMARK   13  A    between atoms: _26  and  _29
REMARK   14  A    between atoms: _29  and  _30
REMARK   15  A    between atoms: _33  and  _35
REMARK   16  A    between atoms: _35  and  _36
REMARK   17  A    between atoms: _35  and  _38
REMARK   18  A    between atoms: _38  and  _39
REMARK   19  A    between atoms: _42  and  _44
REMARK   20  A    between atoms: _44  and  _45
REMARK   21  A    between atoms: _44  and  _47
REMARK   22  A    between atoms: _47  and  _48
REMARK   23  A    between atoms: _50  and  _52
REMARK   24  A    between atoms: _52  and  _53
REMARK   25  A    between atoms: _52  and  _55
REMARK   26  A    between atoms: _55  and  _56
REMARK   27  A    between atoms: _61  and  _63
REMARK   28  A    between atoms: _63  and  _64
REMARK   29  A    between atoms: _66  and  _68
REMARK   30  A    between atoms: _68  and  _69
REMARK   31  A    between atoms: _68  and  _71
REMARK   32  A    between atoms: _71  and  _72
REMARK   33  A    between atoms: _75  and  _77
REMARK   34  A    between atoms: _77  and  _78
REMARK   35  A    between atoms: _77  and  _80
REMARK   36  A    between atoms: _80  and  _81
REMARK   37  A    between atoms: _81  and  _82
REMARK   38  A    between atoms: _82  and  _83
REMARK   39  A    between atoms: _92  and  _94
REMARK   40  A    between atoms: _94  and  _95
REMARK   41  A    between atoms: _94  and  _97
REMARK   42  A    between atoms: _97  and  _98
REMARK   43  A    between atoms: _98  and  _99
REMARK   44  A    between atoms: _102  and  _104
REMARK   45  A    between atoms: _104  and  _105
REMARK   46  A    between atoms: _104  and  _107
REMARK   47  A    between atoms: _107  and  _108
REMARK   48  A    between atoms: _113  and  _115
REMARK   49  A    between atoms: _115  and  _116
REMARK   50  A    between atoms: _115  and  _118
REMARK   51  A    between atoms: _118  and  _119
REMARK   52  A    between atoms: _122  and  _124
REMARK   53  A    between atoms: _124  and  _125
REMARK   54  A    between atoms: _124  and  _127
REMARK   55  A    between atoms: _127  and  _128
REMARK   56  A    between atoms: _134  and  _136
REMARK   57  A    between atoms: _136  and  _137
REMARK   58  A    between atoms: _136  and  _139
REMARK   59  A    between atoms: _139  and  _140
REMARK   60  A    between atoms: _145  and  _147
REMARK   61  A    between atoms: _147  and  _148
REMARK   62  A    between atoms: _147  and  _150
REMARK   63  A    between atoms: _150  and  _151
REMARK   64  A    between atoms: _157  and  _159
REMARK   65  A    between atoms: _159  and  _160
REMARK   66  A    between atoms: _159  and  _162
REMARK   67  A    between atoms: _165  and  _167
REMARK   68  A    between atoms: _167  and  _168
REMARK   69  A    between atoms: _167  and  _170
REMARK   70  A    between atoms: _170  and  _171
REMARK   71  A    between atoms: _176  and  _177
REMARK   72  A    between atoms: _179  and  _181
REMARK   73  A    between atoms: _181  and  _182
REMARK   74  A    between atoms: _181  and  _184
REMARK   75  A    between atoms: _184  and  _185
REMARK   76  A    between atoms: _188  and  _190
REMARK   77  A    between atoms: _190  and  _191
REMARK   78  A    between atoms: _190  and  _193
REMARK   79  A    between atoms: _193  and  _194
REMARK   80  A    between atoms: _197  and  _199
REMARK   81  A    between atoms: _199  and  _200
REMARK   82  A    between atoms: _199  and  _202
REMARK   83  A    between atoms: _202  and  _203
REMARK   84  A    between atoms: _208  and  _210
REMARK   85  A    between atoms: _210  and  _211
REMARK   86  A    between atoms: _210  and  _213
REMARK   87  A    between atoms: _213  and  _214
REMARK   88  A    between atoms: _220  and  _221
REMARK   89  A    between atoms: _226  and  _228
REMARK   90  A    between atoms: _228  and  _229
REMARK   91  A    between atoms: _231  and  _233
REMARK   92  A    between atoms: _233  and  _234
REMARK   93  A    between atoms: _238  and  _239
REMARK   94  A    between atoms: _244  and  _246
REMARK   95  A    between atoms: _246  and  _247
REMARK   96  A    between atoms: _249  and  _251
REMARK   97  A    between atoms: _251  and  _252
REMARK   98  A    between atoms: _251  and  _254
REMARK   99  A    between atoms: _254  and  _255
REMARK  100  A    between atoms: _255  and  _256
REMARK  101  A    between atoms: _258  and  _260
REMARK  102  A    between atoms: _260  and  _261
REMARK  103  A    between atoms: _260  and  _263
REMARK  104  A    between atoms: _263  and  _264
REMARK  105  A    between atoms: _266  and  _268
REMARK  106  A    between atoms: _268  and  _269
REMARK  107  A    between atoms: _268  and  _271
REMARK  108  A    between atoms: _271  and  _272
REMARK  109  A    between atoms: _277  and  _279
REMARK  110  A    between atoms: _279  and  _280
REMARK  111  A    between atoms: _282  and  _284
REMARK  112  A    between atoms: _284  and  _285
REMARK  113  A    between atoms: _284  and  _287
REMARK  114  A    between atoms: _287  and  _288
REMARK  115  A    between atoms: _293  and  _295
REMARK  116  A    between atoms: _295  and  _296
REMARK  117  A    between atoms: _299  and  _301
REMARK  118  A    between atoms: _301  and  _302
REMARK  119  A    between atoms: _301  and  _304
REMARK  120  A    between atoms: _304  and  _305
REMARK  121  A    between atoms: _310  and  _312
REMARK  122  A    between atoms: _312  and  _313
REMARK  123  A    between atoms: _312  and  _315
REMARK  124  A    between atoms: _315  and  _316
REMARK  125  A    between atoms: _319  and  _321
REMARK  126  A    between atoms: _321  and  _322
REMARK  127  A    between atoms: _325  and  _326
REMARK  128  A    between atoms: _331  and  _333
REMARK  129  A    between atoms: _333  and  _334
REMARK  130  A    between atoms: _333  and  _336
REMARK  131  A    between atoms: _336  and  _337
REMARK  132  A    between atoms: _340  and  _342
REMARK  133  A    between atoms: _342  and  _343
REMARK  134  A    between atoms: _345  and  _347
REMARK  135  A    between atoms: _347  and  _348
REMARK  136  A    between atoms: _347  and  _350
REMARK  137  A    between atoms: _350  and  _351
REMARK  138  A    between atoms: _351  and  _352
REMARK  139  A    between atoms: _357  and  _359
REMARK  140  A    between atoms: _359  and  _360
REMARK  141  A    between atoms: _359  and  _362
REMARK  142  A    between atoms: _362  and  _363
REMARK  143  A    between atoms: _366  and  _368
REMARK  144  A    between atoms: _368  and  _369
REMARK  145  A    between atoms: _371  and  _373
REMARK  146  A    between atoms: _373  and  _374
REMARK  147  A    between atoms: _373  and  _376
REMARK  148  A    between atoms: _376  and  _377
REMARK  149  A    between atoms: _380  and  _382
REMARK  150  A    between atoms: _382  and  _383
REMARK  151  A    between atoms: _385  and  _387
REMARK  152  A    between atoms: _387  and  _388
REMARK  153  A    between atoms: _387  and  _390
REMARK  154  A    between atoms: _392  and  _394
REMARK  155  A    between atoms: _394  and  _395
REMARK  156  A    between atoms: _394  and  _397
REMARK  157  A    between atoms: _397  and  _398
REMARK  158  A    between atoms: _401  and  _403
REMARK  159  A    between atoms: _403  and  _404
REMARK  160  A    between atoms: _403  and  _406
REMARK  161  A    between atoms: _406  and  _407
REMARK  162  A    between atoms: _407  and  _408
REMARK  163  A    between atoms: _413  and  _415
REMARK  164  A    between atoms: _415  and  _416
REMARK  165  A    between atoms: _415  and  _418
REMARK  166  A    between atoms: _418  and  _419
REMARK  167  A    between atoms: _419  and  _420
REMARK  168  A    between atoms: _423  and  _425
REMARK  169  A    between atoms: _425  and  _426
REMARK  170  A    between atoms: _425  and  _428
REMARK  171  A    between atoms: _428  and  _429
REMARK  172  A    between atoms: _432  and  _434
REMARK  173  A    between atoms: _434  and  _435
REMARK  174  A    between atoms: _434  and  _437
REMARK  175  A    between atoms: _437  and  _438
REMARK  176  A    between atoms: _443  and  _444
REMARK  177  A    between atoms: _446  and  _448
REMARK  178  A    between atoms: _448  and  _449
REMARK  179  A    between atoms: _448  and  _451
REMARK  180  A    between atoms: _451  and  _452
REMARK  181  A    between atoms: _455  and  _457
REMARK  182  A    between atoms: _457  and  _458
REMARK  183  A    between atoms: _457  and  _460
REMARK  184  A    between atoms: _460  and  _461
REMARK  185  A    between atoms: _464  and  _466
REMARK  186  A    between atoms: _470  and  _472
REMARK  187  A    between atoms: _477  and  _480
REMARK  188  A    between atoms: _480  and  _481
REMARK  189  A    between atoms: _481  and  _482
REMARK  190  A    between atoms: _482  and  _483
REMARK  191  A    between atoms: _483  and  _484
REMARK  192  A    between atoms: _490  and  _493
REMARK  193  A    between atoms: _491  and  _497
REMARK  194  A    between atoms: _493  and  _494
REMARK  195  A    between atoms: _497  and  _499
REMARK  196  A    between atoms: _499  and  _500
REMARK  197  A    between atoms: _499  and  _502
REMARK  198  A    between atoms: _502  and  _503
REMARK  199  A    between atoms: _506  and  _508
REMARK  200  A    between atoms: _508  and  _509
REMARK  201  A    between atoms: _508  and  _511
REMARK  202  A    between atoms: _511  and  _512
REMARK  203  A    between atoms: _515  and  _517
REMARK  204  A    between atoms: _517  and  _518
REMARK  205  A    between atoms: _517  and  _520
REMARK  206  A    between atoms: _520  and  _521
REMARK  207  A    between atoms: _524  and  _526
REMARK  208  A    between atoms: _526  and  _527
REMARK  209  A    between atoms: _529  and  _531
REMARK  210  A    between atoms: _531  and  _532
REMARK  211  A    between atoms: _531  and  _534
REMARK  212  A    between atoms: _534  and  _535
REMARK  213  A    between atoms: _538  and  _540
REMARK  214  A    between atoms: _540  and  _541
REMARK  215  A    between atoms: _540  and  _543
REMARK  216  A    between atoms: _543  and  _544
REMARK  217  A    between atoms: _550  and  _552
REMARK  218  A    between atoms: _552  and  _553
REMARK  219  A    between atoms: _552  and  _555
REMARK  220  A    between atoms: _555  and  _556
REMARK  221  A    between atoms: _559  and  _561
REMARK  222  A    between atoms: _561  and  _562
REMARK  223  A    between atoms: _561  and  _564
REMARK  224  A    between atoms: _564  and  _565
REMARK  225  A    between atoms: _568  and  _570
REMARK  226  A    between atoms: _570  and  _571
REMARK  227  A    between atoms: _573  and  _575
REMARK  228  A    between atoms: _575  and  _576
REMARK  229  A    between atoms: _575  and  _578
REMARK  230  A    between atoms: _578  and  _579
REMARK  231  A    between atoms: _581  and  _583
REMARK  232  A    between atoms: _583  and  _584
REMARK  233  A    between atoms: _583  and  _586
REMARK  234  A    between atoms: _586  and  _587
REMARK  235  A    between atoms: _592  and  _594
REMARK  236  A    between atoms: _594  and  _595
REMARK  237  A    between atoms: _594  and  _597
REMARK  238  A    between atoms: _600  and  _602
REMARK  239  A    between atoms: _602  and  _603
REMARK  240  A    between atoms: _602  and  _605
REMARK  241  A    between atoms: _605  and  _606
REMARK  242  A    between atoms: _611  and  _613
REMARK  243  A    between atoms: _613  and  _614
REMARK  244  A    between atoms: _616  and  _618
REMARK  245  A    between atoms: _618  and  _619
REMARK  246  A    between atoms: _618  and  _621
REMARK  247  A    between atoms: _621  and  _622
REMARK  248  A    between atoms: _627  and  _629
REMARK  249  A    between atoms: _629  and  _630
REMARK                            x       y       z     vdW  Elec       q    Type
REMARK                         _______ _______ _______ _____ _____    ______ ____
ROOT
ATOM      1  C   ASN A   2      15.896  81.521  21.564  0.00  0.00    +0.241 C 
ATOM      2  N   GLY A   3      14.890  81.540  22.462  0.00  0.00    -0.295 N 
ATOM      3  H   GLY A   3      14.187  80.777  22.383  0.00  0.00    +0.150 HD
ATOM      4  O   ASN A   2      16.853  82.292  21.740  0.00  0.00    -0.273 OA
ENDROOT
BRANCH   2   5
ATOM      5  CA  GLY A   3      14.672  82.525  23.549  0.00  0.00    +0.176 C 
BRANCH   5   6
ATOM      6  C   GLY A   3      15.870  82.786  24.441  0.00  0.00    +0.243 C 
ATOM      7  O   GLY A   3      15.967  83.816  25.064  0.00  0.00    -0.273 OA
ATOM      8  N   HIS A   4      16.878  81.912  24.502  0.00  0.00    -0.297 N 
ATOM      9  H   HIS A   4      16.832  81.047  23.927  0.00  0.00    +0.150 HD
BRANCH   8  10
ATOM     10  CA  HIS A   4      18.041  82.137  25.353  0.00  0.00    +0.155 C 
BRANCH  10  11
ATOM     11  C   HIS A   4      18.882  83.238  24.825  0.00  0.00    +0.241 C 
ATOM     12  O   HIS A   4      19.772  83.625  25.563  0.00  0.00    -0.273 OA
ATOM     13  N   ALA A   5      18.670  83.643  23.561  0.00  0.00    -0.298 N 
ATOM     14  H   ALA A   5      17.921  83.168  23.017  0.00  0.00    +0.150 HD
BRANCH  13  15
ATOM     15  CA  ALA A   5      19.416  84.697  22.908  0.00  0.00    +0.137 C 
ATOM     16  CB  ALA A   5      19.340  84.510  21.372  0.00  0.00    +0.030 C 
BRANCH  15  17
ATOM     17  C   ALA A   5      18.867  86.069  23.282  0.00  0.00    +0.227 C 
ATOM     18  O   ALA A   5      19.317  87.055  22.731  0.00  0.00    -0.286 OA
ENDBRANCH  15  17
ENDBRANCH  13  15
ENDBRANCH  10  11
BRANCH  10  19
ATOM     19  CB  HIS A   4      18.960  80.915  25.462  0.00  0.00    +0.076 C 
BRANCH  19  20
ATOM     20  CG  HIS A   4      19.481  80.315  24.152  0.00  0.00    +0.082 A 
ATOM     21  CD2 HIS A   4      20.728  80.570  23.610  0.00  0.00    +0.115 A 
ATOM     22  NE2 HIS A   4      20.748  79.934  22.464  0.00  0.00    -0.221 NA
ATOM     23  CE1 HIS A   4      19.613  79.309  22.282  0.00  0.00    +0.199 A 
ATOM     24  ND1 HIS A   4      18.817  79.524  23.315  0.00  0.00    -0.227 NA
ENDBRANCH  19  20
ENDBRANCH  10  19
ENDBRANCH   8  10
ENDBRANCH   5   6
ENDBRANCH   2   5
BRANCH   1  25
ATOM     25  CA  ASN A   2      15.850  80.463  20.418  0.00  0.00    +0.158 C 
BRANCH  25  28
ATOM     26  C   SER A   1      13.521  80.606  19.965  0.00  0.00    +0.241 C 
ATOM     27  O   SER A   1      13.358  79.884  20.943  0.00  0.00    -0.274 OA
ATOM     28  N   ASN A   2      14.752  80.817  19.544  0.00  0.00    -0.297 N 
ATOM     29  H   ASN A   2      14.930  81.228  18.606  0.00  0.00    +0.150 HD
BRANCH  26  30
ATOM     30  CA  SER A   1      12.319  81.159  19.253  0.00  0.00    +0.174 C 
BRANCH  30  31
ATOM     31  N   SER A   1      12.623  82.503  18.782  0.00  0.00    -0.236 NA
ATOM     32  H   SER A   1      12.824  82.636  17.770  0.00  0.00    +0.142 HD
ENDBRANCH  30  31
BRANCH  30  33
ATOM     33  CB  SER A   1      11.946  80.235  18.094  0.00  0.00    +0.163 C 
BRANCH  33  34
ATOM     34  OG  SER A   1      11.274  79.049  18.532  0.00  0.00    -0.380 OA
ATOM     35  H   SER A   1      11.864  78.545  19.147  0.00  0.00    +0.211 HD
ENDBRANCH  33  34
ENDBRANCH  30  33
ENDBRANCH  26  30
ENDBRANCH  25  28
BRANCH  25  36
ATOM     36  CB  ASN A   2      17.118  80.441  19.592  0.00  0.00    +0.114 C 
BRANCH  36  37
ATOM     37  CG  ASN A   2      17.425  81.659  18.714  0.00  0.00    +0.222 C 
ATOM     38  ND2 ASN A   2      16.535  82.580  18.352  0.00  0.00    -0.329 N 
ATOM     39 HD21 ASN A   2      15.555  82.519  18.695  0.00  0.00    +0.145 HD
ATOM     40 HD22 ASN A   2      16.820  83.361  17.727  0.00  0.00    +0.145 HD
ATOM     41  OD1 ASN A   2      18.554  81.814  18.261  0.00  0.00    -0.275 OA
ENDBRANCH  36  37
ENDBRANCH  25  36
ENDBRANCH   1  25
TORSDOF 16
REMARK  Name = ../refined-set-2016/1tkb/1tkb_pocket.pdb
REMARK  249 active torsions:
REMARK  status: ('A' for Active; 'I' for Inactive)
REMARK    1  A    between atoms: _1  and  _3
REMARK    2  A    between atoms: _3  and  _4
REMARK    3  A    between atoms: _3  and  _6
REMARK    4  A    between atoms: _6  and  _7
REMARK    5  A    between atoms: _9  and  _11
REMARK    6  A    between atoms: _11  and  _12
REMARK    7  A    between atoms: _15  and  _17
REMARK    8  A    between atoms: _17  and  _18
REMARK    9  A    between atoms: _17  and  _20
REMARK   10  A    between atoms: _20  and  _21
REMARK   11  A    between atoms: _24  and  _26
REMARK   12  A    between atoms: _26  and  _27
REMARK   13  A    between atoms: _26  and  _29
REMARK   14  A    between atoms: _29  and  _30
REMARK   15  A    between atoms: _33  and  _35
REMARK   16  A    between atoms: _35  and  _36
REMARK   17  A    between atoms: _35  and  _38
REMARK   18  A    between atoms: _38  and  _39
REMARK   19  A    between atoms: _42  and  _44
REMARK   20  A    between atoms: _44  and  _45
REMARK   21  A    between atoms: _44  and  _47
REMARK   22  A    between atoms: _47  and  _48
REMARK   23  A    between atoms: _50  and  _52
REMARK   24  A    between atoms: _52  and  _53
REMARK   25  A    between atoms: _52  and  _55
REMARK   26  A    between atoms: _55  and  _56
REMARK   27  A    between atoms: _61  and  _63
REMARK   28  A    between atoms: _63  and  _64
REMARK   29  A    between atoms: _66  and  _68
REMARK   30  A    between atoms: _68  and  _69
REMARK   31  A    between atoms: _68  and  _71
REMARK   32  A    between atoms: _71  and  _72
REMARK   33  A    between atoms: _75  and  _77
REMARK   34  A    between atoms: _77  and  _78
REMARK   35  A    between atoms: _77  and  _80
REMARK   36  A    between atoms: _80  and  _81
REMARK   37  A    between atoms: _81  and  _82
REMARK   38  A    between atoms: _82  and  _83
REMARK   39  A    between atoms: _92  and  _94
REMARK   40  A    between atoms: _94  and  _95
REMARK   41  A    between atoms: _94  and  _97
REMARK   42  A    between atoms: _97  and  _98
REMARK   43  A    between atoms: _98  and  _99
REMARK   44  A    between atoms: _102  and  _104
REMARK   45  A    between atoms: _104  and  _105
REMARK   46  A    between atoms: _104  and  _107
REMARK   47  A    between atoms: _107  and  _108
REMARK   48  A    between atoms: _113  and  _115
REMARK   49  A    between atoms: _115  and  _116
REMARK   50  A    between atoms: _115  and  _118
REMARK   51  A    between atoms: _118  and  _119
REMARK   52  A    between atoms: _122  and  _124
REMARK   53  A    between atoms: _124  and  _125
REMARK   54  A    between atoms: _124  and  _127
REMARK   55  A    between atoms: _127  and  _128
REMARK   56  A    between atoms: _134  and  _136
REMARK   57  A    between atoms: _136  and  _137
REMARK   58  A    between atoms: _136  and  _139
REMARK   59  A    between atoms: _139  and  _140
REMARK   60  A    between atoms: _145  and  _147
REMARK   61  A    between atoms: _147  and  _148
REMARK   62  A    between atoms: _147  and  _150
REMARK   63  A    between atoms: _150  and  _151
REMARK   64  A    between atoms: _157  and  _159
REMARK   65  A    between atoms: _159  and  _160
REMARK   66  A    between atoms: _159  and  _162
REMARK   67  A    between atoms: _165  and  _167
REMARK   68  A    between atoms: _167  and  _168
REMARK   69  A    between atoms: _167  and  _170
REMARK   70  A    between atoms: _170  and  _171
REMARK   71  A    between atoms: _176  and  _177
REMARK   72  A    between atoms: _179  and  _181
REMARK   73  A    between atoms: _181  and  _182
REMARK   74  A    between atoms: _181  and  _184
REMARK   75  A    between atoms: _184  and  _185
REMARK   76  A    between atoms: _188  and  _190
REMARK   77  A    between atoms: _190  and  _191
REMARK   78  A    between atoms: _190  and  _193
REMARK   79  A    between atoms: _193  and  _194
REMARK   80  A    between atoms: _197  and  _199
REMARK   81  A    between atoms: _199  and  _200
REMARK   82  A    between atoms: _199  and  _202
REMARK   83  A    between atoms: _202  and  _203
REMARK   84  A    between atoms: _208  and  _210
REMARK   85  A    between atoms: _210  and  _211
REMARK   86  A    between atoms: _210  and  _213
REMARK   87  A    between atoms: _213  and  _214
REMARK   88  A    between atoms: _220  and  _221
REMARK   89  A    between atoms: _226  and  _228
REMARK   90  A    between atoms: _228  and  _229
REMARK   91  A    between atoms: _231  and  _233
REMARK   92  A    between atoms: _233  and  _234
REMARK   93  A    between atoms: _238  and  _239
REMARK   94  A    between atoms: _244  and  _246
REMARK   95  A    between atoms: _246  and  _247
REMARK   96  A    between atoms: _249  and  _251
REMARK   97  A    between atoms: _251  and  _252
REMARK   98  A    between atoms: _251  and  _254
REMARK   99  A    between atoms: _254  and  _255
REMARK  100  A    between atoms: _255  and  _256
REMARK  101  A    between atoms: _258  and  _260
REMARK  102  A    between atoms: _260  and  _261
REMARK  103  A    between atoms: _260  and  _263
REMARK  104  A    between atoms: _263  and  _264
REMARK  105  A    between atoms: _266  and  _268
REMARK  106  A    between atoms: _268  and  _269
REMARK  107  A    between atoms: _268  and  _271
REMARK  108  A    between atoms: _271  and  _272
REMARK  109  A    between atoms: _277  and  _279
REMARK  110  A    between atoms: _279  and  _280
REMARK  111  A    between atoms: _282  and  _284
REMARK  112  A    between atoms: _284  and  _285
REMARK  113  A    between atoms: _284  and  _287
REMARK  114  A    between atoms: _287  and  _288
REMARK  115  A    between atoms: _293  and  _295
REMARK  116  A    between atoms: _295  and  _296
REMARK  117  A    between atoms: _299  and  _301
REMARK  118  A    between atoms: _301  and  _302
REMARK  119  A    between atoms: _301  and  _304
REMARK  120  A    between atoms: _304  and  _305
REMARK  121  A    between atoms: _310  and  _312
REMARK  122  A    between atoms: _312  and  _313
REMARK  123  A    between atoms: _312  and  _315
REMARK  124  A    between atoms: _315  and  _316
REMARK  125  A    between atoms: _319  and  _321
REMARK  126  A    between atoms: _321  and  _322
REMARK  127  A    between atoms: _325  and  _326
REMARK  128  A    between atoms: _331  and  _333
REMARK  129  A    between atoms: _333  and  _334
REMARK  130  A    between atoms: _333  and  _336
REMARK  131  A    between atoms: _336  and  _337
REMARK  132  A    between atoms: _340  and  _342
REMARK  133  A    between atoms: _342  and  _343
REMARK  134  A    between atoms: _345  and  _347
REMARK  135  A    between atoms: _347  and  _348
REMARK  136  A    between atoms: _347  and  _350
REMARK  137  A    between atoms: _350  and  _351
REMARK  138  A    between atoms: _351  and  _352
REMARK  139  A    between atoms: _357  and  _359
REMARK  140  A    between atoms: _359  and  _360
REMARK  141  A    between atoms: _359  and  _362
REMARK  142  A    between atoms: _362  and  _363
REMARK  143  A    between atoms: _366  and  _368
REMARK  144  A    between atoms: _368  and  _369
REMARK  145  A    between atoms: _371  and  _373
REMARK  146  A    between atoms: _373  and  _374
REMARK  147  A    between atoms: _373  and  _376
REMARK  148  A    between atoms: _376  and  _377
REMARK  149  A    between atoms: _380  and  _382
REMARK  150  A    between atoms: _382  and  _383
REMARK  151  A    between atoms: _385  and  _387
REMARK  152  A    between atoms: _387  and  _388
REMARK  153  A    between atoms: _387  and  _390
REMARK  154  A    between atoms: _392  and  _394
REMARK  155  A    between atoms: _394  and  _395
REMARK  156  A    between atoms: _394  and  _397
REMARK  157  A    between atoms: _397  and  _398
REMARK  158  A    between atoms: _401  and  _403
REMARK  159  A    between atoms: _403  and  _404
REMARK  160  A    between atoms: _403  and  _406
REMARK  161  A    between atoms: _406  and  _407
REMARK  162  A    between atoms: _407  and  _408
REMARK  163  A    between atoms: _413  and  _415
REMARK  164  A    between atoms: _415  and  _416
REMARK  165  A    between atoms: _415  and  _418
REMARK  166  A    between atoms: _418  and  _419
REMARK  167  A    between atoms: _419  and  _420
REMARK  168  A    between atoms: _423  and  _425
REMARK  169  A    between atoms: _425  and  _426
REMARK  170  A    between atoms: _425  and  _428
REMARK  171  A    between atoms: _428  and  _429
REMARK  172  A    between atoms: _432  and  _434
REMARK  173  A    between atoms: _434  and  _435
REMARK  174  A    between atoms: _434  and  _437
REMARK  175  A    between atoms: _437  and  _438
REMARK  176  A    between atoms: _443  and  _444
REMARK  177  A    between atoms: _446  and  _448
REMARK  178  A    between atoms: _448  and  _449
REMARK  179  A    between atoms: _448  and  _451
REMARK  180  A    between atoms: _451  and  _452
REMARK  181  A    between atoms: _455  and  _457
REMARK  182  A    between atoms: _457  and  _458
REMARK  183  A    between atoms: _457  and  _460
REMARK  184  A    between atoms: _460  and  _461
REMARK  185  A    between atoms: _464  and  _466
REMARK  186  A    between atoms: _470  and  _472
REMARK  187  A    between atoms: _477  and  _480
REMARK  188  A    between atoms: _480  and  _481
REMARK  189  A    between atoms: _481  and  _482
REMARK  190  A    between atoms: _482  and  _483
REMARK  191  A    between atoms: _483  and  _484
REMARK  192  A    between atoms: _490  and  _493
REMARK  193  A    between atoms: _491  and  _497
REMARK  194  A    between atoms: _493  and  _494
REMARK  195  A    between atoms: _497  and  _499
REMARK  196  A    between atoms: _499  and  _500
REMARK  197  A    between atoms: _499  and  _502
REMARK  198  A    between atoms: _502  and  _503
REMARK  199  A    between atoms: _506  and  _508
REMARK  200  A    between atoms: _508  and  _509
REMARK  201  A    between atoms: _508  and  _511
REMARK  202  A    between atoms: _511  and  _512
REMARK  203  A    between atoms: _515  and  _517
REMARK  204  A    between atoms: _517  and  _518
REMARK  205  A    between atoms: _517  and  _520
REMARK  206  A    between atoms: _520  and  _521
REMARK  207  A    between atoms: _524  and  _526
REMARK  208  A    between atoms: _526  and  _527
REMARK  209  A    between atoms: _529  and  _531
REMARK  210  A    between atoms: _531  and  _532
REMARK  211  A    between atoms: _531  and  _534
REMARK  212  A    between atoms: _534  and  _535
REMARK  213  A    between atoms: _538  and  _540
REMARK  214  A    between atoms: _540  and  _541
REMARK  215  A    between atoms: _540  and  _543
REMARK  216  A    between atoms: _543  and  _544
REMARK  217  A    between atoms: _550  and  _552
REMARK  218  A    between atoms: _552  and  _553
REMARK  219  A    between atoms: _552  and  _555
REMARK  220  A    between atoms: _555  and  _556
REMARK  221  A    between atoms: _559  and  _561
REMARK  222  A    between atoms: _561  and  _562
REMARK  223  A    between atoms: _561  and  _564
REMARK  224  A    between atoms: _564  and  _565
REMARK  225  A    between atoms: _568  and  _570
REMARK  226  A    between atoms: _570  and  _571
REMARK  227  A    between atoms: _573  and  _575
REMARK  228  A    between atoms: _575  and  _576
REMARK  229  A    between atoms: _575  and  _578
REMARK  230  A    between atoms: _578  and  _579
REMARK  231  A    between atoms: _581  and  _583
REMARK  232  A    between atoms: _583  and  _584
REMARK  233  A    between atoms: _583  and  _586
REMARK  234  A    between atoms: _586  and  _587
REMARK  235  A    between atoms: _592  and  _594
REMARK  236  A    between atoms: _594  and  _595
REMARK  237  A    between atoms: _594  and  _597
REMARK  238  A    between atoms: _600  and  _602
REMARK  239  A    between atoms: _602  and  _603
REMARK  240  A    between atoms: _602  and  _605
REMARK  241  A    between atoms: _605  and  _606
REMARK  242  A    between atoms: _611  and  _613
REMARK  243  A    between atoms: _613  and  _614
REMARK  244  A    between atoms: _616  and  _618
REMARK  245  A    between atoms: _618  and  _619
REMARK  246  A    between atoms: _618  and  _621
REMARK  247  A    between atoms: _621  and  _622
REMARK  248  A    between atoms: _627  and  _629
REMARK  249  A    between atoms: _629  and  _630
REMARK                            x       y       z     vdW  Elec       q    Type
REMARK                         _______ _______ _______ _____ _____    ______ ____
ROOT
ATOM      1  CB  HIS A   1      13.964  83.041  29.075  0.00  0.00    +0.072 C 
ENDROOT
BRANCH   1   2
ATOM      2  CG  HIS A   1      15.120  82.092  29.201  0.00  0.00    +0.082 A 
ATOM      3  ND1 HIS A   1      15.798  81.783  30.306  0.00  0.00    -0.227 NA
ATOM      4  CE1 HIS A   1      16.771  80.996  29.987  0.00  0.00    +0.199 A 
ATOM      5  NE2 HIS A   1      16.697  80.801  28.700  0.00  0.00    -0.221 NA
ATOM      6  CD2 HIS A   1      15.699  81.452  28.166  0.00  0.00    +0.115 A 
ENDBRANCH   1   2
BRANCH   1   7
ATOM      7  CA  HIS A   1      14.460  84.485  28.986  0.00  0.00    +0.139 C 
BRANCH   7   8
ATOM      8  N   HIS A   1      15.112  85.006  30.189  0.00  0.00    -0.239 NA
ATOM      9  H   HIS A   1      14.506  85.409  30.932  0.00  0.00    +0.142 HD
ENDBRANCH   7   8
BRANCH   7  10
ATOM     10  C   HIS A   1      13.219  85.325  28.837  0.00  0.00    +0.224 C 
ATOM     11  O   HIS A   1      12.592  85.677  29.834  0.00  0.00    -0.287 OA
ENDBRANCH   7  10
ENDBRANCH   1   7
TORSDOF 4
REMARK  Name = ../refined-set-2016/1tkb/1tkb_pocket.pdb
REMARK  249 active torsions:
REMARK  status: ('A' for Active; 'I' for Inactive)
REMARK    1  A    between atoms: _1  and  _3
REMARK    2  A    between atoms: _3  and  _4
REMARK    3  A    between atoms: _3  and  _6
REMARK    4  A    between atoms: _6  and  _7
REMARK    5  A    between atoms: _9  and  _11
REMARK    6  A    between atoms: _11  and  _12
REMARK    7  A    between atoms: _15  and  _17
REMARK    8  A    between atoms: _17  and  _18
REMARK    9  A    between atoms: _17  and  _20
REMARK   10  A    between atoms: _20  and  _21
REMARK   11  A    between atoms: _24  and  _26
REMARK   12  A    between atoms: _26  and  _27
REMARK   13  A    between atoms: _26  and  _29
REMARK   14  A    between atoms: _29  and  _30
REMARK   15  A    between atoms: _33  and  _35
REMARK   16  A    between atoms: _35  and  _36
REMARK   17  A    between atoms: _35  and  _38
REMARK   18  A    between atoms: _38  and  _39
REMARK   19  A    between atoms: _42  and  _44
REMARK   20  A    between atoms: _44  and  _45
REMARK   21  A    between atoms: _44  and  _47
REMARK   22  A    between atoms: _47  and  _48
REMARK   23  A    between atoms: _50  and  _52
REMARK   24  A    between atoms: _52  and  _53
REMARK   25  A    between atoms: _52  and  _55
REMARK   26  A    between atoms: _55  and  _56
REMARK   27  A    between atoms: _61  and  _63
REMARK   28  A    between atoms: _63  and  _64
REMARK   29  A    between atoms: _66  and  _68
REMARK   30  A    between atoms: _68  and  _69
REMARK   31  A    between atoms: _68  and  _71
REMARK   32  A    between atoms: _71  and  _72
REMARK   33  A    between atoms: _75  and  _77
REMARK   34  A    between atoms: _77  and  _78
REMARK   35  A    between atoms: _77  and  _80
REMARK   36  A    between atoms: _80  and  _81
REMARK   37  A    between atoms: _81  and  _82
REMARK   38  A    between atoms: _82  and  _83
REMARK   39  A    between atoms: _92  and  _94
REMARK   40  A    between atoms: _94  and  _95
REMARK   41  A    between atoms: _94  and  _97
REMARK   42  A    between atoms: _97  and  _98
REMARK   43  A    between atoms: _98  and  _99
REMARK   44  A    between atoms: _102  and  _104
REMARK   45  A    between atoms: _104  and  _105
REMARK   46  A    between atoms: _104  and  _107
REMARK   47  A    between atoms: _107  and  _108
REMARK   48  A    between atoms: _113  and  _115
REMARK   49  A    between atoms: _115  and  _116
REMARK   50  A    between atoms: _115  and  _118
REMARK   51  A    between atoms: _118  and  _119
REMARK   52  A    between atoms: _122  and  _124
REMARK   53  A    between atoms: _124  and  _125
REMARK   54  A    between atoms: _124  and  _127
REMARK   55  A    between atoms: _127  and  _128
REMARK   56  A    between atoms: _134  and  _136
REMARK   57  A    between atoms: _136  and  _137
REMARK   58  A    between atoms: _136  and  _139
REMARK   59  A    between atoms: _139  and  _140
REMARK   60  A    between atoms: _145  and  _147
REMARK   61  A    between atoms: _147  and  _148
REMARK   62  A    between atoms: _147  and  _150
REMARK   63  A    between atoms: _150  and  _151
REMARK   64  A    between atoms: _157  and  _159
REMARK   65  A    between atoms: _159  and  _160
REMARK   66  A    between atoms: _159  and  _162
REMARK   67  A    between atoms: _165  and  _167
REMARK   68  A    between atoms: _167  and  _168
REMARK   69  A    between atoms: _167  and  _170
REMARK   70  A    between atoms: _170  and  _171
REMARK   71  A    between atoms: _176  and  _177
REMARK   72  A    between atoms: _179  and  _181
REMARK   73  A    between atoms: _181  and  _182
REMARK   74  A    between atoms: _181  and  _184
REMARK   75  A    between atoms: _184  and  _185
REMARK   76  A    between atoms: _188  and  _190
REMARK   77  A    between atoms: _190  and  _191
REMARK   78  A    between atoms: _190  and  _193
REMARK   79  A    between atoms: _193  and  _194
REMARK   80  A    between atoms: _197  and  _199
REMARK   81  A    between atoms: _199  and  _200
REMARK   82  A    between atoms: _199  and  _202
REMARK   83  A    between atoms: _202  and  _203
REMARK   84  A    between atoms: _208  and  _210
REMARK   85  A    between atoms: _210  and  _211
REMARK   86  A    between atoms: _210  and  _213
REMARK   87  A    between atoms: _213  and  _214
REMARK   88  A    between atoms: _220  and  _221
REMARK   89  A    between atoms: _226  and  _228
REMARK   90  A    between atoms: _228  and  _229
REMARK   91  A    between atoms: _231  and  _233
REMARK   92  A    between atoms: _233  and  _234
REMARK   93  A    between atoms: _238  and  _239
REMARK   94  A    between atoms: _244  and  _246
REMARK   95  A    between atoms: _246  and  _247
REMARK   96  A    between atoms: _249  and  _251
REMARK   97  A    between atoms: _251  and  _252
REMARK   98  A    between atoms: _251  and  _254
REMARK   99  A    between atoms: _254  and  _255
REMARK  100  A    between atoms: _255  and  _256
REMARK  101  A    between atoms: _258  and  _260
REMARK  102  A    between atoms: _260  and  _261
REMARK  103  A    between atoms: _260  and  _263
REMARK  104  A    between atoms: _263  and  _264
REMARK  105  A    between atoms: _266  and  _268
REMARK  106  A    between atoms: _268  and  _269
REMARK  107  A    between atoms: _268  and  _271
REMARK  108  A    between atoms: _271  and  _272
REMARK  109  A    between atoms: _277  and  _279
REMARK  110  A    between atoms: _279  and  _280
REMARK  111  A    between atoms: _282  and  _284
REMARK  112  A    between atoms: _284  and  _285
REMARK  113  A    between atoms: _284  and  _287
REMARK  114  A    between atoms: _287  and  _288
REMARK  115  A    between atoms: _293  and  _295
REMARK  116  A    between atoms: _295  and  _296
REMARK  117  A    between atoms: _299  and  _301
REMARK  118  A    between atoms: _301  and  _302
REMARK  119  A    between atoms: _301  and  _304
REMARK  120  A    between atoms: _304  and  _305
REMARK  121  A    between atoms: _310  and  _312
REMARK  122  A    between atoms: _312  and  _313
REMARK  123  A    between atoms: _312  and  _315
REMARK  124  A    between atoms: _315  and  _316
REMARK  125  A    between atoms: _319  and  _321
REMARK  126  A    between atoms: _321  and  _322
REMARK  127  A    between atoms: _325  and  _326
REMARK  128  A    between atoms: _331  and  _333
REMARK  129  A    between atoms: _333  and  _334
REMARK  130  A    between atoms: _333  and  _336
REMARK  131  A    between atoms: _336  and  _337
REMARK  132  A    between atoms: _340  and  _342
REMARK  133  A    between atoms: _342  and  _343
REMARK  134  A    between atoms: _345  and  _347
REMARK  135  A    between atoms: _347  and  _348
REMARK  136  A    between atoms: _347  and  _350
REMARK  137  A    between atoms: _350  and  _351
REMARK  138  A    between atoms: _351  and  _352
REMARK  139  A    between atoms: _357  and  _359
REMARK  140  A    between atoms: _359  and  _360
REMARK  141  A    between atoms: _359  and  _362
REMARK  142  A    between atoms: _362  and  _363
REMARK  143  A    between atoms: _366  and  _368
REMARK  144  A    between atoms: _368  and  _369
REMARK  145  A    between atoms: _371  and  _373
REMARK  146  A    between atoms: _373  and  _374
REMARK  147  A    between atoms: _373  and  _376
REMARK  148  A    between atoms: _376  and  _377
REMARK  149  A    between atoms: _380  and  _382
REMARK  150  A    between atoms: _382  and  _383
REMARK  151  A    between atoms: _385  and  _387
REMARK  152  A    between atoms: _387  and  _388
REMARK  153  A    between atoms: _387  and  _390
REMARK  154  A    between atoms: _392  and  _394
REMARK  155  A    between atoms: _394  and  _395
REMARK  156  A    between atoms: _394  and  _397
REMARK  157  A    between atoms: _397  and  _398
REMARK  158  A    between atoms: _401  and  _403
REMARK  159  A    between atoms: _403  and  _404
REMARK  160  A    between atoms: _403  and  _406
REMARK  161  A    between atoms: _406  and  _407
REMARK  162  A    between atoms: _407  and  _408
REMARK  163  A    between atoms: _413  and  _415
REMARK  164  A    between atoms: _415  and  _416
REMARK  165  A    between atoms: _415  and  _418
REMARK  166  A    between atoms: _418  and  _419
REMARK  167  A    between atoms: _419  and  _420
REMARK  168  A    between atoms: _423  and  _425
REMARK  169  A    between atoms: _425  and  _426
REMARK  170  A    between atoms: _425  and  _428
REMARK  171  A    between atoms: _428  and  _429
REMARK  172  A    between atoms: _432  and  _434
REMARK  173  A    between atoms: _434  and  _435
REMARK  174  A    between atoms: _434  and  _437
REMARK  175  A    between atoms: _437  and  _438
REMARK  176  A    between atoms: _443  and  _444
REMARK  177  A    between atoms: _446  and  _448
REMARK  178  A    between atoms: _448  and  _449
REMARK  179  A    between atoms: _448  and  _451
REMARK  180  A    between atoms: _451  and  _452
REMARK  181  A    between atoms: _455  and  _457
REMARK  182  A    between atoms: _457  and  _458
REMARK  183  A    between atoms: _457  and  _460
REMARK  184  A    between atoms: _460  and  _461
REMARK  185  A    between atoms: _464  and  _466
REMARK  186  A    between atoms: _470  and  _472
REMARK  187  A    between atoms: _477  and  _480
REMARK  188  A    between atoms: _480  and  _481
REMARK  189  A    between atoms: _481  and  _482
REMARK  190  A    between atoms: _482  and  _483
REMARK  191  A    between atoms: _483  and  _484
REMARK  192  A    between atoms: _490  and  _493
REMARK  193  A    between atoms: _491  and  _497
REMARK  194  A    between atoms: _493  and  _494
REMARK  195  A    between atoms: _497  and  _499
REMARK  196  A    between atoms: _499  and  _500
REMARK  197  A    between atoms: _499  and  _502
REMARK  198  A    between atoms: _502  and  _503
REMARK  199  A    between atoms: _506  and  _508
REMARK  200  A    between atoms: _508  and  _509
REMARK  201  A    between atoms: _508  and  _511
REMARK  202  A    between atoms: _511  and  _512
REMARK  203  A    between atoms: _515  and  _517
REMARK  204  A    between atoms: _517  and  _518
REMARK  205  A    between atoms: _517  and  _520
REMARK  206  A    between atoms: _520  and  _521
REMARK  207  A    between atoms: _524  and  _526
REMARK  208  A    between atoms: _526  and  _527
REMARK  209  A    between atoms: _529  and  _531
REMARK  210  A    between atoms: _531  and  _532
REMARK  211  A    between atoms: _531  and  _534
REMARK  212  A    between atoms: _534  and  _535
REMARK  213  A    between atoms: _538  and  _540
REMARK  214  A    between atoms: _540  and  _541
REMARK  215  A    between atoms: _540  and  _543
REMARK  216  A    between atoms: _543  and  _544
REMARK  217  A    between atoms: _550  and  _552
REMARK  218  A    between atoms: _552  and  _553
REMARK  219  A    between atoms: _552  and  _555
REMARK  220  A    between atoms: _555  and  _556
REMARK  221  A    between atoms: _559  and  _561
REMARK  222  A    between atoms: _561  and  _562
REMARK  223  A    between atoms: _561  and  _564
REMARK  224  A    between atoms: _564  and  _565
REMARK  225  A    between atoms: _568  and  _570
REMARK  226  A    between atoms: _570  and  _571
REMARK  227  A    between atoms: _573  and  _575
REMARK  228  A    between atoms: _575  and  _576
REMARK  229  A    between atoms: _575  and  _578
REMARK  230  A    between atoms: _578  and  _579
REMARK  231  A    between atoms: _581  and  _583
REMARK  232  A    between atoms: _583  and  _584
REMARK  233  A    between atoms: _583  and  _586
REMARK  234  A    between atoms: _586  and  _587
REMARK  235  A    between atoms: _592  and  _594
REMARK  236  A    between atoms: _594  and  _595
REMARK  237  A    between atoms: _594  and  _597
REMARK  238  A    between atoms: _600  and  _602
REMARK  239  A    between atoms: _602  and  _603
REMARK  240  A    between atoms: _602  and  _605
REMARK  241  A    between atoms: _605  and  _606
REMARK  242  A    between atoms: _611  and  _613
REMARK  243  A    between atoms: _613  and  _614
REMARK  244  A    between atoms: _616  and  _618
REMARK  245  A    between atoms: _618  and  _619
REMARK  246  A    between atoms: _618  and  _621
REMARK  247  A    between atoms: _621  and  _622
REMARK  248  A    between atoms: _627  and  _629
REMARK  249  A    between atoms: _629  and  _630
REMARK                            x       y       z     vdW  Elec       q    Type
REMARK                         _______ _______ _______ _____ _____    ______ ____
ROOT
ATOM      1  CA  LEU A   4      12.867  75.090  22.478  0.00  0.00    +0.149 C 
ENDROOT
BRANCH   1   3
ATOM      2  C   PRO A   3      11.814  76.105  24.405  0.00  0.00    +0.241 C 
ATOM      3  N   LEU A   4      12.601  75.174  23.906  0.00  0.00    -0.297 N 
ATOM      4  H   LEU A   4      13.042  74.484  24.547  0.00  0.00    +0.150 HD
ATOM      5  O   PRO A   3      11.232  76.896  23.644  0.00  0.00    -0.273 OA
BRANCH   2  11
ATOM      6  C   GLY A   2      13.053  78.260  26.017  0.00  0.00    +0.246 C 
ATOM      7  N   PRO A   3      11.950  77.586  26.372  0.00  0.00    -0.272 N 
ATOM      8  CD  PRO A   3      10.900  78.107  27.286  0.00  0.00    +0.094 C 
ATOM      9  CG  PRO A   3      10.147  76.873  27.726  0.00  0.00    +0.024 C 
ATOM     10  CB  PRO A   3      10.255  75.980  26.477  0.00  0.00    +0.031 C 
ATOM     11  CA  PRO A   3      11.667  76.210  25.930  0.00  0.00    +0.152 C 
ATOM     12  O   GLY A   2      14.136  77.709  25.843  0.00  0.00    -0.273 OA
BRANCH   6  13
ATOM     13  CA  GLY A   2      12.984  79.762  25.970  0.00  0.00    +0.176 C 
BRANCH  13  16
ATOM     14  C   THR A   1      11.132  81.313  25.706  0.00  0.00    +0.241 C 
ATOM     15  O   THR A   1      11.490  82.039  26.653  0.00  0.00    -0.274 OA
ATOM     16  N   GLY A   2      11.784  80.223  25.307  0.00  0.00    -0.295 N 
ATOM     17  H   GLY A   2      11.419  79.687  24.494  0.00  0.00    +0.150 HD
BRANCH  14  18
ATOM     18  CA  THR A   1       9.924  81.632  24.896  0.00  0.00    +0.172 C 
BRANCH  18  19
ATOM     19  N   THR A   1       9.244  82.697  25.602  0.00  0.00    -0.236 NA
ATOM     20  H   THR A   1       9.797  83.465  26.034  0.00  0.00    +0.142 HD
ENDBRANCH  18  19
BRANCH  18  21
ATOM     21  CB  THR A   1      10.453  81.992  23.493  0.00  0.00    +0.135 C 
ATOM     22  CG2 THR A   1       9.303  82.230  22.516  0.00  0.00    +0.034 C 
BRANCH  21  23
ATOM     23  OG1 THR A   1      11.386  83.078  23.650  0.00  0.00    -0.383 OA
ATOM     24  HG1 THR A   1      11.745  83.334  22.764  0.00  0.00    +0.210 HD
ENDBRANCH  21  23
ENDBRANCH  18  21
ENDBRANCH  14  18
ENDBRANCH  13  16
ENDBRANCH   6  13
ENDBRANCH   2  11
ENDBRANCH   1   3
BRANCH   1  25
ATOM     25  C   LEU A   4      11.679  74.569  21.723  0.00  0.00    +0.241 C 
ATOM     26  O   LEU A   4      10.793  73.928  22.276  0.00  0.00    -0.273 OA
ATOM     27  N   GLY A   5      11.555  75.094  20.508  0.00  0.00    -0.295 N 
ATOM     28  H   GLY A   5      12.241  75.806  20.185  0.00  0.00    +0.150 HD
BRANCH  27  29
ATOM     29  CA  GLY A   5      10.488  74.693  19.634  0.00  0.00    +0.176 C 
BRANCH  29  30
ATOM     30  C   GLY A   5       9.182  75.390  19.921  0.00  0.00    +0.243 C 
ATOM     31  N   GLN A   6       9.105  76.166  20.976  0.00  0.00    -0.298 N 
ATOM     32  H   GLN A   6       9.944  76.301  21.575  0.00  0.00    +0.150 HD
ATOM     33  O   GLY A   5       8.216  75.303  19.161  0.00  0.00    -0.273 OA
BRANCH  31  34
ATOM     34  CA  GLN A   6       7.868  76.837  21.318  0.00  0.00    +0.137 C 
BRANCH  34  35
ATOM     35  C   GLN A   6       7.609  78.125  20.533  0.00  0.00    +0.227 C 
ATOM     36  O   GLN A   6       6.466  78.402  20.161  0.00  0.00    -0.286 OA
ENDBRANCH  34  35
BRANCH  34  37
ATOM     37  CB  GLN A   6       7.964  77.004  22.858  0.00  0.00    +0.037 C 
BRANCH  37  38
ATOM     38  CG  GLN A   6       8.066  75.622  23.603  0.00  0.00    +0.087 C 
BRANCH  38  39
ATOM     39  CD  GLN A   6       6.772  74.832  23.786  0.00  0.00    +0.219 C 
ATOM     40  OE1 GLN A   6       6.695  73.650  24.172  0.00  0.00    -0.275 OA
ATOM     41  NE2 GLN A   6       5.635  75.474  23.537  0.00  0.00    -0.329 N 
ATOM     42 HE21 GLN A   6       4.725  74.988  23.666  0.00  0.00    +0.145 HD
ATOM     43 HE22 GLN A   6       5.656  76.462  23.213  0.00  0.00    +0.145 HD
ENDBRANCH  38  39
ENDBRANCH  37  38
ENDBRANCH  34  37
ENDBRANCH  31  34
ENDBRANCH  29  30
ENDBRANCH  27  29
ENDBRANCH   1  25
BRANCH   1  44
ATOM     44  CB  LEU A   4      14.115  74.222  22.236  0.00  0.00    +0.029 C 
BRANCH  44  45
ATOM     45  CG  LEU A   4      15.330  74.940  22.876  0.00  0.00    +0.002 C 
ATOM     46  CD2 LEU A   4      16.566  74.097  22.921  0.00  0.00    +0.000 C 
ATOM     47  CD1 LEU A   4      15.574  76.183  22.071  0.00  0.00    +0.000 C 
ENDBRANCH  44  45
ENDBRANCH   1  44
TORSDOF 18
REMARK  Name = ../refined-set-2016/1tkb/1tkb_pocket.pdb
REMARK  249 active torsions:
REMARK  status: ('A' for Active; 'I' for Inactive)
REMARK    1  A    between atoms: _1  and  _3
REMARK    2  A    between atoms: _3  and  _4
REMARK    3  A    between atoms: _3  and  _6
REMARK    4  A    between atoms: _6  and  _7
REMARK    5  A    between atoms: _9  and  _11
REMARK    6  A    between atoms: _11  and  _12
REMARK    7  A    between atoms: _15  and  _17
REMARK    8  A    between atoms: _17  and  _18
REMARK    9  A    between atoms: _17  and  _20
REMARK   10  A    between atoms: _20  and  _21
REMARK   11  A    between atoms: _24  and  _26
REMARK   12  A    between atoms: _26  and  _27
REMARK   13  A    between atoms: _26  and  _29
REMARK   14  A    between atoms: _29  and  _30
REMARK   15  A    between atoms: _33  and  _35
REMARK   16  A    between atoms: _35  and  _36
REMARK   17  A    between atoms: _35  and  _38
REMARK   18  A    between atoms: _38  and  _39
REMARK   19  A    between atoms: _42  and  _44
REMARK   20  A    between atoms: _44  and  _45
REMARK   21  A    between atoms: _44  and  _47
REMARK   22  A    between atoms: _47  and  _48
REMARK   23  A    between atoms: _50  and  _52
REMARK   24  A    between atoms: _52  and  _53
REMARK   25  A    between atoms: _52  and  _55
REMARK   26  A    between atoms: _55  and  _56
REMARK   27  A    between atoms: _61  and  _63
REMARK   28  A    between atoms: _63  and  _64
REMARK   29  A    between atoms: _66  and  _68
REMARK   30  A    between atoms: _68  and  _69
REMARK   31  A    between atoms: _68  and  _71
REMARK   32  A    between atoms: _71  and  _72
REMARK   33  A    between atoms: _75  and  _77
REMARK   34  A    between atoms: _77  and  _78
REMARK   35  A    between atoms: _77  and  _80
REMARK   36  A    between atoms: _80  and  _81
REMARK   37  A    between atoms: _81  and  _82
REMARK   38  A    between atoms: _82  and  _83
REMARK   39  A    between atoms: _92  and  _94
REMARK   40  A    between atoms: _94  and  _95
REMARK   41  A    between atoms: _94  and  _97
REMARK   42  A    between atoms: _97  and  _98
REMARK   43  A    between atoms: _98  and  _99
REMARK   44  A    between atoms: _102  and  _104
REMARK   45  A    between atoms: _104  and  _105
REMARK   46  A    between atoms: _104  and  _107
REMARK   47  A    between atoms: _107  and  _108
REMARK   48  A    between atoms: _113  and  _115
REMARK   49  A    between atoms: _115  and  _116
REMARK   50  A    between atoms: _115  and  _118
REMARK   51  A    between atoms: _118  and  _119
REMARK   52  A    between atoms: _122  and  _124
REMARK   53  A    between atoms: _124  and  _125
REMARK   54  A    between atoms: _124  and  _127
REMARK   55  A    between atoms: _127  and  _128
REMARK   56  A    between atoms: _134  and  _136
REMARK   57  A    between atoms: _136  and  _137
REMARK   58  A    between atoms: _136  and  _139
REMARK   59  A    between atoms: _139  and  _140
REMARK   60  A    between atoms: _145  and  _147
REMARK   61  A    between atoms: _147  and  _148
REMARK   62  A    between atoms: _147  and  _150
REMARK   63  A    between atoms: _150  and  _151
REMARK   64  A    between atoms: _157  and  _159
REMARK   65  A    between atoms: _159  and  _160
REMARK   66  A    between atoms: _159  and  _162
REMARK   67  A    between atoms: _165  and  _167
REMARK   68  A    between atoms: _167  and  _168
REMARK   69  A    between atoms: _167  and  _170
REMARK   70  A    between atoms: _170  and  _171
REMARK   71  A    between atoms: _176  and  _177
REMARK   72  A    between atoms: _179  and  _181
REMARK   73  A    between atoms: _181  and  _182
REMARK   74  A    between atoms: _181  and  _184
REMARK   75  A    between atoms: _184  and  _185
REMARK   76  A    between atoms: _188  and  _190
REMARK   77  A    between atoms: _190  and  _191
REMARK   78  A    between atoms: _190  and  _193
REMARK   79  A    between atoms: _193  and  _194
REMARK   80  A    between atoms: _197  and  _199
REMARK   81  A    between atoms: _199  and  _200
REMARK   82  A    between atoms: _199  and  _202
REMARK   83  A    between atoms: _202  and  _203
REMARK   84  A    between atoms: _208  and  _210
REMARK   85  A    between atoms: _210  and  _211
REMARK   86  A    between atoms: _210  and  _213
REMARK   87  A    between atoms: _213  and  _214
REMARK   88  A    between atoms: _220  and  _221
REMARK   89  A    between atoms: _226  and  _228
REMARK   90  A    between atoms: _228  and  _229
REMARK   91  A    between atoms: _231  and  _233
REMARK   92  A    between atoms: _233  and  _234
REMARK   93  A    between atoms: _238  and  _239
REMARK   94  A    between atoms: _244  and  _246
REMARK   95  A    between atoms: _246  and  _247
REMARK   96  A    between atoms: _249  and  _251
REMARK   97  A    between atoms: _251  and  _252
REMARK   98  A    between atoms: _251  and  _254
REMARK   99  A    between atoms: _254  and  _255
REMARK  100  A    between atoms: _255  and  _256
REMARK  101  A    between atoms: _258  and  _260
REMARK  102  A    between atoms: _260  and  _261
REMARK  103  A    between atoms: _260  and  _263
REMARK  104  A    between atoms: _263  and  _264
REMARK  105  A    between atoms: _266  and  _268
REMARK  106  A    between atoms: _268  and  _269
REMARK  107  A    between atoms: _268  and  _271
REMARK  108  A    between atoms: _271  and  _272
REMARK  109  A    between atoms: _277  and  _279
REMARK  110  A    between atoms: _279  and  _280
REMARK  111  A    between atoms: _282  and  _284
REMARK  112  A    between atoms: _284  and  _285
REMARK  113  A    between atoms: _284  and  _287
REMARK  114  A    between atoms: _287  and  _288
REMARK  115  A    between atoms: _293  and  _295
REMARK  116  A    between atoms: _295  and  _296
REMARK  117  A    between atoms: _299  and  _301
REMARK  118  A    between atoms: _301  and  _302
REMARK  119  A    between atoms: _301  and  _304
REMARK  120  A    between atoms: _304  and  _305
REMARK  121  A    between atoms: _310  and  _312
REMARK  122  A    between atoms: _312  and  _313
REMARK  123  A    between atoms: _312  and  _315
REMARK  124  A    between atoms: _315  and  _316
REMARK  125  A    between atoms: _319  and  _321
REMARK  126  A    between atoms: _321  and  _322
REMARK  127  A    between atoms: _325  and  _326
REMARK  128  A    between atoms: _331  and  _333
REMARK  129  A    between atoms: _333  and  _334
REMARK  130  A    between atoms: _333  and  _336
REMARK  131  A    between atoms: _336  and  _337
REMARK  132  A    between atoms: _340  and  _342
REMARK  133  A    between atoms: _342  and  _343
REMARK  134  A    between atoms: _345  and  _347
REMARK  135  A    between atoms: _347  and  _348
REMARK  136  A    between atoms: _347  and  _350
REMARK  137  A    between atoms: _350  and  _351
REMARK  138  A    between atoms: _351  and  _352
REMARK  139  A    between atoms: _357  and  _359
REMARK  140  A    between atoms: _359  and  _360
REMARK  141  A    between atoms: _359  and  _362
REMARK  142  A    between atoms: _362  and  _363
REMARK  143  A    between atoms: _366  and  _368
REMARK  144  A    between atoms: _368  and  _369
REMARK  145  A    between atoms: _371  and  _373
REMARK  146  A    between atoms: _373  and  _374
REMARK  147  A    between atoms: _373  and  _376
REMARK  148  A    between atoms: _376  and  _377
REMARK  149  A    between atoms: _380  and  _382
REMARK  150  A    between atoms: _382  and  _383
REMARK  151  A    between atoms: _385  and  _387
REMARK  152  A    between atoms: _387  and  _388
REMARK  153  A    between atoms: _387  and  _390
REMARK  154  A    between atoms: _392  and  _394
REMARK  155  A    between atoms: _394  and  _395
REMARK  156  A    between atoms: _394  and  _397
REMARK  157  A    between atoms: _397  and  _398
REMARK  158  A    between atoms: _401  and  _403
REMARK  159  A    between atoms: _403  and  _404
REMARK  160  A    between atoms: _403  and  _406
REMARK  161  A    between atoms: _406  and  _407
REMARK  162  A    between atoms: _407  and  _408
REMARK  163  A    between atoms: _413  and  _415
REMARK  164  A    between atoms: _415  and  _416
REMARK  165  A    between atoms: _415  and  _418
REMARK  166  A    between atoms: _418  and  _419
REMARK  167  A    between atoms: _419  and  _420
REMARK  168  A    between atoms: _423  and  _425
REMARK  169  A    between atoms: _425  and  _426
REMARK  170  A    between atoms: _425  and  _428
REMARK  171  A    between atoms: _428  and  _429
REMARK  172  A    between atoms: _432  and  _434
REMARK  173  A    between atoms: _434  and  _435
REMARK  174  A    between atoms: _434  and  _437
REMARK  175  A    between atoms: _437  and  _438
REMARK  176  A    between atoms: _443  and  _444
REMARK  177  A    between atoms: _446  and  _448
REMARK  178  A    between atoms: _448  and  _449
REMARK  179  A    between atoms: _448  and  _451
REMARK  180  A    between atoms: _451  and  _452
REMARK  181  A    between atoms: _455  and  _457
REMARK  182  A    between atoms: _457  and  _458
REMARK  183  A    between atoms: _457  and  _460
REMARK  184  A    between atoms: _460  and  _461
REMARK  185  A    between atoms: _464  and  _466
REMARK  186  A    between atoms: _470  and  _472
REMARK  187  A    between atoms: _477  and  _480
REMARK  188  A    between atoms: _480  and  _481
REMARK  189  A    between atoms: _481  and  _482
REMARK  190  A    between atoms: _482  and  _483
REMARK  191  A    between atoms: _483  and  _484
REMARK  192  A    between atoms: _490  and  _493
REMARK  193  A    between atoms: _491  and  _497
REMARK  194  A    between atoms: _493  and  _494
REMARK  195  A    between atoms: _497  and  _499
REMARK  196  A    between atoms: _499  and  _500
REMARK  197  A    between atoms: _499  and  _502
REMARK  198  A    between atoms: _502  and  _503
REMARK  199  A    between atoms: _506  and  _508
REMARK  200  A    between atoms: _508  and  _509
REMARK  201  A    between atoms: _508  and  _511
REMARK  202  A    between atoms: _511  and  _512
REMARK  203  A    between atoms: _515  and  _517
REMARK  204  A    between atoms: _517  and  _518
REMARK  205  A    between atoms: _517  and  _520
REMARK  206  A    between atoms: _520  and  _521
REMARK  207  A    between atoms: _524  and  _526
REMARK  208  A    between atoms: _526  and  _527
REMARK  209  A    between atoms: _529  and  _531
REMARK  210  A    between atoms: _531  and  _532
REMARK  211  A    between atoms: _531  and  _534
REMARK  212  A    between atoms: _534  and  _535
REMARK  213  A    between atoms: _538  and  _540
REMARK  214  A    between atoms: _540  and  _541
REMARK  215  A    between atoms: _540  and  _543
REMARK  216  A    between atoms: _543  and  _544
REMARK  217  A    between atoms: _550  and  _552
REMARK  218  A    between atoms: _552  and  _553
REMARK  219  A    between atoms: _552  and  _555
REMARK  220  A    between atoms: _555  and  _556
REMARK  221  A    between atoms: _559  and  _561
REMARK  222  A    between atoms: _561  and  _562
REMARK  223  A    between atoms: _561  and  _564
REMARK  224  A    between atoms: _564  and  _565
REMARK  225  A    between atoms: _568  and  _570
REMARK  226  A    between atoms: _570  and  _571
REMARK  227  A    between atoms: _573  and  _575
REMARK  228  A    between atoms: _575  and  _576
REMARK  229  A    between atoms: _575  and  _578
REMARK  230  A    between atoms: _578  and  _579
REMARK  231  A    between atoms: _581  and  _583
REMARK  232  A    between atoms: _583  and  _584
REMARK  233  A    between atoms: _583  and  _586
REMARK  234  A    between atoms: _586  and  _587
REMARK  235  A    between atoms: _592  and  _594
REMARK  236  A    between atoms: _594  and  _595
REMARK  237  A    between atoms: _594  and  _597
REMARK  238  A    between atoms: _600  and  _602
REMARK  239  A    between atoms: _602  and  _603
REMARK  240  A    between atoms: _602  and  _605
REMARK  241  A    between atoms: _605  and  _606
REMARK  242  A    between atoms: _611  and  _613
REMARK  243  A    between atoms: _613  and  _614
REMARK  244  A    between atoms: _616  and  _618
REMARK  245  A    between atoms: _618  and  _619
REMARK  246  A    between atoms: _618  and  _621
REMARK  247  A    between atoms: _621  and  _622
REMARK  248  A    between atoms: _627  and  _629
REMARK  249  A    between atoms: _629  and  _630
REMARK                            x       y       z     vdW  Elec       q    Type
REMARK                         _______ _______ _______ _____ _____    ______ ____
ROOT
ATOM      1  CA  CYS A   5      14.363  74.426  17.785  0.00  0.00    +0.160 C 
ENDROOT
BRANCH   1   4
ATOM      2  C   GLY A   4      16.229  73.296  18.780  0.00  0.00    +0.243 C 
ATOM      3  O   GLY A   4      15.489  72.332  19.056  0.00  0.00    -0.273 OA
ATOM      4  N   CYS A   5      15.772  74.331  18.088  0.00  0.00    -0.296 N 
ATOM      5  H   CYS A   5      16.426  75.072  17.765  0.00  0.00    +0.150 HD
BRANCH   2   6
ATOM      6  CA  GLY A   4      17.708  73.352  19.131  0.00  0.00    +0.176 C 
BRANCH   6   8
ATOM      7  C   ASP A   3      18.581  73.431  16.836  0.00  0.00    +0.241 C 
ATOM      8  N   GLY A   4      18.547  73.913  18.090  0.00  0.00    -0.295 N 
ATOM      9  H   GLY A   4      19.151  74.727  18.325  0.00  0.00    +0.150 HD
ATOM     10  O   ASP A   3      17.868  72.515  16.460  0.00  0.00    -0.273 OA
BRANCH   7  11
ATOM     11  CA  ASP A   3      19.479  74.101  15.825  0.00  0.00    +0.160 C 
BRANCH  11  13
ATOM     12  C   GLY A   2      18.227  76.242  15.878  0.00  0.00    +0.243 C 
ATOM     13  N   ASP A   3      19.376  75.553  15.885  0.00  0.00    -0.296 N 
ATOM     14  H   ASP A   3      20.262  76.096  15.937  0.00  0.00    +0.150 HD
ATOM     15  O   GLY A   2      17.095  75.720  15.811  0.00  0.00    -0.273 OA
BRANCH  12  16
ATOM     16  CA  GLY A   2      18.419  77.753  15.967  0.00  0.00    +0.176 C 
BRANCH  16  18
ATOM     17  C   LEU A   1      16.868  79.551  15.299  0.00  0.00    +0.238 C 
ATOM     18  N   GLY A   2      17.122  78.422  15.972  0.00  0.00    -0.296 N 
ATOM     19  H   GLY A   2      16.353  77.998  16.529  0.00  0.00    +0.150 HD
ATOM     20  O   LEU A   1      17.718  80.076  14.569  0.00  0.00    -0.274 OA
BRANCH  17  21
ATOM     21  CA  LEU A   1      15.480  80.181  15.528  0.00  0.00    +0.145 C 
BRANCH  21  22
ATOM     22  N   LEU A   1      15.421  81.530  14.956  0.00  0.00    -0.238 NA
ATOM     23  H   LEU A   1      16.101  81.772  14.207  0.00  0.00    +0.142 HD
ENDBRANCH  21  22
BRANCH  21  24
ATOM     24  CB  LEU A   1      14.346  79.273  14.926  0.00  0.00    +0.026 C 
BRANCH  24  25
ATOM     25  CG  LEU A   1      14.407  78.430  13.645  0.00  0.00    +0.002 C 
ATOM     26  CD2 LEU A   1      13.538  77.193  13.819  0.00  0.00    +0.000 C 
ATOM     27  CD1 LEU A   1      13.841  79.182  12.462  0.00  0.00    +0.000 C 
ENDBRANCH  24  25
ENDBRANCH  21  24
ENDBRANCH  17  21
ENDBRANCH  16  18
ENDBRANCH  12  16
ENDBRANCH  11  13
BRANCH  11  28
ATOM     28  CB  ASP A   3      20.834  73.636  16.145  0.00  0.00    +0.143 C 
BRANCH  28  29
ATOM     29  CG  ASP A   3      21.897  74.404  15.429  0.00  0.00    +0.367 C 
ATOM     30  OD2 ASP A   3      22.479  75.271  16.088  0.00  0.00    -0.246 OA
ATOM     31  OD1 ASP A   3      22.123  74.146  14.248  0.00  0.00    -0.246 OA
ENDBRANCH  28  29
ENDBRANCH  11  28
ENDBRANCH   7  11
ENDBRANCH   6   8
ENDBRANCH   2   6
ENDBRANCH   1   4
BRANCH   1  32
ATOM     32  C   CYS A   5      14.041  73.468  16.684  0.00  0.00    +0.242 C 
ATOM     33  O   CYS A   5      12.955  72.896  16.693  0.00  0.00    -0.273 OA
ATOM     34  N   LEU A   6      14.999  73.239  15.792  0.00  0.00    -0.297 N 
ATOM     35  H   LEU A   6      15.918  73.721  15.861  0.00  0.00    +0.150 HD
BRANCH  34  36
ATOM     36  CA  LEU A   6      14.732  72.309  14.731  0.00  0.00    +0.149 C 
BRANCH  36  37
ATOM     37  C   LEU A   6      14.702  70.848  15.208  0.00  0.00    +0.241 C 
ATOM     38  N   GLN A   7      15.403  70.504  16.318  0.00  0.00    -0.297 N 
ATOM     39  H   GLN A   7      15.932  71.239  16.830  0.00  0.00    +0.150 HD
ATOM     40  O   LEU A   6      14.035  70.021  14.563  0.00  0.00    -0.273 OA
BRANCH  38  41
ATOM     41  CA  GLN A   7      15.435  69.125  16.815  0.00  0.00    +0.149 C 
BRANCH  41  42
ATOM     42  C   GLN A   7      14.222  68.777  17.687  0.00  0.00    +0.241 C 
ATOM     43  N   GLU A   8      13.533  69.763  18.265  0.00  0.00    -0.298 N 
ATOM     44  H   GLU A   8      13.888  70.739  18.210  0.00  0.00    +0.150 HD
ATOM     45  O   GLN A   7      13.853  67.605  17.823  0.00  0.00    -0.273 OA
BRANCH  43  46
ATOM     46  CA  GLU A   8      12.297  69.490  18.967  0.00  0.00    +0.137 C 
BRANCH  46  47
ATOM     47  C   GLU A   8      11.140  69.119  18.050  0.00  0.00    +0.227 C 
ATOM     48  O   GLU A   8      10.625  69.901  17.267  0.00  0.00    -0.286 OA
ENDBRANCH  46  47
BRANCH  46  49
ATOM     49  CB  GLU A   8      11.908  70.722  19.796  0.00  0.00    +0.039 C 
BRANCH  49  50
ATOM     50  CG  GLU A   8      12.803  70.904  20.996  0.00  0.00    +0.116 C 
BRANCH  50  51
ATOM     51  CD  GLU A   8      12.635  69.881  22.115  0.00  0.00    +0.365 C 
ATOM     52  OE2 GLU A   8      13.539  69.819  22.925  0.00  0.00    -0.246 OA
ATOM     53  OE1 GLU A   8      11.633  69.158  22.221  0.00  0.00    -0.246 OA
ENDBRANCH  50  51
ENDBRANCH  49  50
ENDBRANCH  46  49
ENDBRANCH  43  46
ENDBRANCH  41  42
BRANCH  41  54
ATOM     54  CB  GLN A   7      16.687  68.891  17.591  0.00  0.00    +0.039 C 
BRANCH  54  55
ATOM     55  CG  GLN A   7      17.899  69.129  16.752  0.00  0.00    +0.087 C 
BRANCH  55  56
ATOM     56  CD  GLN A   7      19.201  68.937  17.508  0.00  0.00    +0.219 C 
ATOM     57  OE1 GLN A   7      19.351  68.020  18.314  0.00  0.00    -0.275 OA
ATOM     58  NE2 GLN A   7      20.216  69.768  17.326  0.00  0.00    -0.329 N 
ATOM     59 HE21 GLN A   7      21.100  69.632  17.856  0.00  0.00    +0.145 HD
ATOM     60 HE22 GLN A   7      20.129  70.556  16.653  0.00  0.00    +0.145 HD
ENDBRANCH  55  56
ENDBRANCH  54  55
ENDBRANCH  41  54
ENDBRANCH  38  41
ENDBRANCH  36  37
BRANCH  36  61
ATOM     61  CB  LEU A   6      15.781  72.546  13.677  0.00  0.00    +0.029 C 
BRANCH  61  62
ATOM     62  CG  LEU A   6      15.628  73.888  12.982  0.00  0.00    +0.002 C 
ATOM     63  CD2 LEU A   6      14.297  74.079  12.289  0.00  0.00    +0.000 C 
ATOM     64  CD1 LEU A   6      16.761  73.933  12.010  0.00  0.00    +0.000 C 
ENDBRANCH  61  62
ENDBRANCH  36  61
ENDBRANCH  34  36
ENDBRANCH   1  32
BRANCH   1  65
ATOM     65  CB  CYS A   5      13.971  75.827  17.356  0.00  0.00    +0.098 C 
ATOM     66  SG  CYS A   5      13.652  76.929  18.764  0.00  0.00    -0.080 S 
ENDBRANCH   1  65
TORSDOF 29
REMARK  Name = ../refined-set-2016/1tkb/1tkb_pocket.pdb
REMARK  249 active torsions:
REMARK  status: ('A' for Active; 'I' for Inactive)
REMARK    1  A    between atoms: _1  and  _3
REMARK    2  A    between atoms: _3  and  _4
REMARK    3  A    between atoms: _3  and  _6
REMARK    4  A    between atoms: _6  and  _7
REMARK    5  A    between atoms: _9  and  _11
REMARK    6  A    between atoms: _11  and  _12
REMARK    7  A    between atoms: _15  and  _17
REMARK    8  A    between atoms: _17  and  _18
REMARK    9  A    between atoms: _17  and  _20
REMARK   10  A    between atoms: _20  and  _21
REMARK   11  A    between atoms: _24  and  _26
REMARK   12  A    between atoms: _26  and  _27
REMARK   13  A    between atoms: _26  and  _29
REMARK   14  A    between atoms: _29  and  _30
REMARK   15  A    between atoms: _33  and  _35
REMARK   16  A    between atoms: _35  and  _36
REMARK   17  A    between atoms: _35  and  _38
REMARK   18  A    between atoms: _38  and  _39
REMARK   19  A    between atoms: _42  and  _44
REMARK   20  A    between atoms: _44  and  _45
REMARK   21  A    between atoms: _44  and  _47
REMARK   22  A    between atoms: _47  and  _48
REMARK   23  A    between atoms: _50  and  _52
REMARK   24  A    between atoms: _52  and  _53
REMARK   25  A    between atoms: _52  and  _55
REMARK   26  A    between atoms: _55  and  _56
REMARK   27  A    between atoms: _61  and  _63
REMARK   28  A    between atoms: _63  and  _64
REMARK   29  A    between atoms: _66  and  _68
REMARK   30  A    between atoms: _68  and  _69
REMARK   31  A    between atoms: _68  and  _71
REMARK   32  A    between atoms: _71  and  _72
REMARK   33  A    between atoms: _75  and  _77
REMARK   34  A    between atoms: _77  and  _78
REMARK   35  A    between atoms: _77  and  _80
REMARK   36  A    between atoms: _80  and  _81
REMARK   37  A    between atoms: _81  and  _82
REMARK   38  A    between atoms: _82  and  _83
REMARK   39  A    between atoms: _92  and  _94
REMARK   40  A    between atoms: _94  and  _95
REMARK   41  A    between atoms: _94  and  _97
REMARK   42  A    between atoms: _97  and  _98
REMARK   43  A    between atoms: _98  and  _99
REMARK   44  A    between atoms: _102  and  _104
REMARK   45  A    between atoms: _104  and  _105
REMARK   46  A    between atoms: _104  and  _107
REMARK   47  A    between atoms: _107  and  _108
REMARK   48  A    between atoms: _113  and  _115
REMARK   49  A    between atoms: _115  and  _116
REMARK   50  A    between atoms: _115  and  _118
REMARK   51  A    between atoms: _118  and  _119
REMARK   52  A    between atoms: _122  and  _124
REMARK   53  A    between atoms: _124  and  _125
REMARK   54  A    between atoms: _124  and  _127
REMARK   55  A    between atoms: _127  and  _128
REMARK   56  A    between atoms: _134  and  _136
REMARK   57  A    between atoms: _136  and  _137
REMARK   58  A    between atoms: _136  and  _139
REMARK   59  A    between atoms: _139  and  _140
REMARK   60  A    between atoms: _145  and  _147
REMARK   61  A    between atoms: _147  and  _148
REMARK   62  A    between atoms: _147  and  _150
REMARK   63  A    between atoms: _150  and  _151
REMARK   64  A    between atoms: _157  and  _159
REMARK   65  A    between atoms: _159  and  _160
REMARK   66  A    between atoms: _159  and  _162
REMARK   67  A    between atoms: _165  and  _167
REMARK   68  A    between atoms: _167  and  _168
REMARK   69  A    between atoms: _167  and  _170
REMARK   70  A    between atoms: _170  and  _171
REMARK   71  A    between atoms: _176  and  _177
REMARK   72  A    between atoms: _179  and  _181
REMARK   73  A    between atoms: _181  and  _182
REMARK   74  A    between atoms: _181  and  _184
REMARK   75  A    between atoms: _184  and  _185
REMARK   76  A    between atoms: _188  and  _190
REMARK   77  A    between atoms: _190  and  _191
REMARK   78  A    between atoms: _190  and  _193
REMARK   79  A    between atoms: _193  and  _194
REMARK   80  A    between atoms: _197  and  _199
REMARK   81  A    between atoms: _199  and  _200
REMARK   82  A    between atoms: _199  and  _202
REMARK   83  A    between atoms: _202  and  _203
REMARK   84  A    between atoms: _208  and  _210
REMARK   85  A    between atoms: _210  and  _211
REMARK   86  A    between atoms: _210  and  _213
REMARK   87  A    between atoms: _213  and  _214
REMARK   88  A    between atoms: _220  and  _221
REMARK   89  A    between atoms: _226  and  _228
REMARK   90  A    between atoms: _228  and  _229
REMARK   91  A    between atoms: _231  and  _233
REMARK   92  A    between atoms: _233  and  _234
REMARK   93  A    between atoms: _238  and  _239
REMARK   94  A    between atoms: _244  and  _246
REMARK   95  A    between atoms: _246  and  _247
REMARK   96  A    between atoms: _249  and  _251
REMARK   97  A    between atoms: _251  and  _252
REMARK   98  A    between atoms: _251  and  _254
REMARK   99  A    between atoms: _254  and  _255
REMARK  100  A    between atoms: _255  and  _256
REMARK  101  A    between atoms: _258  and  _260
REMARK  102  A    between atoms: _260  and  _261
REMARK  103  A    between atoms: _260  and  _263
REMARK  104  A    between atoms: _263  and  _264
REMARK  105  A    between atoms: _266  and  _268
REMARK  106  A    between atoms: _268  and  _269
REMARK  107  A    between atoms: _268  and  _271
REMARK  108  A    between atoms: _271  and  _272
REMARK  109  A    between atoms: _277  and  _279
REMARK  110  A    between atoms: _279  and  _280
REMARK  111  A    between atoms: _282  and  _284
REMARK  112  A    between atoms: _284  and  _285
REMARK  113  A    between atoms: _284  and  _287
REMARK  114  A    between atoms: _287  and  _288
REMARK  115  A    between atoms: _293  and  _295
REMARK  116  A    between atoms: _295  and  _296
REMARK  117  A    between atoms: _299  and  _301
REMARK  118  A    between atoms: _301  and  _302
REMARK  119  A    between atoms: _301  and  _304
REMARK  120  A    between atoms: _304  and  _305
REMARK  121  A    between atoms: _310  and  _312
REMARK  122  A    between atoms: _312  and  _313
REMARK  123  A    between atoms: _312  and  _315
REMARK  124  A    between atoms: _315  and  _316
REMARK  125  A    between atoms: _319  and  _321
REMARK  126  A    between atoms: _321  and  _322
REMARK  127  A    between atoms: _325  and  _326
REMARK  128  A    between atoms: _331  and  _333
REMARK  129  A    between atoms: _333  and  _334
REMARK  130  A    between atoms: _333  and  _336
REMARK  131  A    between atoms: _336  and  _337
REMARK  132  A    between atoms: _340  and  _342
REMARK  133  A    between atoms: _342  and  _343
REMARK  134  A    between atoms: _345  and  _347
REMARK  135  A    between atoms: _347  and  _348
REMARK  136  A    between atoms: _347  and  _350
REMARK  137  A    between atoms: _350  and  _351
REMARK  138  A    between atoms: _351  and  _352
REMARK  139  A    between atoms: _357  and  _359
REMARK  140  A    between atoms: _359  and  _360
REMARK  141  A    between atoms: _359  and  _362
REMARK  142  A    between atoms: _362  and  _363
REMARK  143  A    between atoms: _366  and  _368
REMARK  144  A    between atoms: _368  and  _369
REMARK  145  A    between atoms: _371  and  _373
REMARK  146  A    between atoms: _373  and  _374
REMARK  147  A    between atoms: _373  and  _376
REMARK  148  A    between atoms: _376  and  _377
REMARK  149  A    between atoms: _380  and  _382
REMARK  150  A    between atoms: _382  and  _383
REMARK  151  A    between atoms: _385  and  _387
REMARK  152  A    between atoms: _387  and  _388
REMARK  153  A    between atoms: _387  and  _390
REMARK  154  A    between atoms: _392  and  _394
REMARK  155  A    between atoms: _394  and  _395
REMARK  156  A    between atoms: _394  and  _397
REMARK  157  A    between atoms: _397  and  _398
REMARK  158  A    between atoms: _401  and  _403
REMARK  159  A    between atoms: _403  and  _404
REMARK  160  A    between atoms: _403  and  _406
REMARK  161  A    between atoms: _406  and  _407
REMARK  162  A    between atoms: _407  and  _408
REMARK  163  A    between atoms: _413  and  _415
REMARK  164  A    between atoms: _415  and  _416
REMARK  165  A    between atoms: _415  and  _418
REMARK  166  A    between atoms: _418  and  _419
REMARK  167  A    between atoms: _419  and  _420
REMARK  168  A    between atoms: _423  and  _425
REMARK  169  A    between atoms: _425  and  _426
REMARK  170  A    between atoms: _425  and  _428
REMARK  171  A    between atoms: _428  and  _429
REMARK  172  A    between atoms: _432  and  _434
REMARK  173  A    between atoms: _434  and  _435
REMARK  174  A    between atoms: _434  and  _437
REMARK  175  A    between atoms: _437  and  _438
REMARK  176  A    between atoms: _443  and  _444
REMARK  177  A    between atoms: _446  and  _448
REMARK  178  A    between atoms: _448  and  _449
REMARK  179  A    between atoms: _448  and  _451
REMARK  180  A    between atoms: _451  and  _452
REMARK  181  A    between atoms: _455  and  _457
REMARK  182  A    between atoms: _457  and  _458
REMARK  183  A    between atoms: _457  and  _460
REMARK  184  A    between atoms: _460  and  _461
REMARK  185  A    between atoms: _464  and  _466
REMARK  186  A    between atoms: _470  and  _472
REMARK  187  A    between atoms: _477  and  _480
REMARK  188  A    between atoms: _480  and  _481
REMARK  189  A    between atoms: _481  and  _482
REMARK  190  A    between atoms: _482  and  _483
REMARK  191  A    between atoms: _483  and  _484
REMARK  192  A    between atoms: _490  and  _493
REMARK  193  A    between atoms: _491  and  _497
REMARK  194  A    between atoms: _493  and  _494
REMARK  195  A    between atoms: _497  and  _499
REMARK  196  A    between atoms: _499  and  _500
REMARK  197  A    between atoms: _499  and  _502
REMARK  198  A    between atoms: _502  and  _503
REMARK  199  A    between atoms: _506  and  _508
REMARK  200  A    between atoms: _508  and  _509
REMARK  201  A    between atoms: _508  and  _511
REMARK  202  A    between atoms: _511  and  _512
REMARK  203  A    between atoms: _515  and  _517
REMARK  204  A    between atoms: _517  and  _518
REMARK  205  A    between atoms: _517  and  _520
REMARK  206  A    between atoms: _520  and  _521
REMARK  207  A    between atoms: _524  and  _526
REMARK  208  A    between atoms: _526  and  _527
REMARK  209  A    between atoms: _529  and  _531
REMARK  210  A    between atoms: _531  and  _532
REMARK  211  A    between atoms: _531  and  _534
REMARK  212  A    between atoms: _534  and  _535
REMARK  213  A    between atoms: _538  and  _540
REMARK  214  A    between atoms: _540  and  _541
REMARK  215  A    between atoms: _540  and  _543
REMARK  216  A    between atoms: _543  and  _544
REMARK  217  A    between atoms: _550  and  _552
REMARK  218  A    between atoms: _552  and  _553
REMARK  219  A    between atoms: _552  and  _555
REMARK  220  A    between atoms: _555  and  _556
REMARK  221  A    between atoms: _559  and  _561
REMARK  222  A    between atoms: _561  and  _562
REMARK  223  A    between atoms: _561  and  _564
REMARK  224  A    between atoms: _564  and  _565
REMARK  225  A    between atoms: _568  and  _570
REMARK  226  A    between atoms: _570  and  _571
REMARK  227  A    between atoms: _573  and  _575
REMARK  228  A    between atoms: _575  and  _576
REMARK  229  A    between atoms: _575  and  _578
REMARK  230  A    between atoms: _578  and  _579
REMARK  231  A    between atoms: _581  and  _583
REMARK  232  A    between atoms: _583  and  _584
REMARK  233  A    between atoms: _583  and  _586
REMARK  234  A    between atoms: _586  and  _587
REMARK  235  A    between atoms: _592  and  _594
REMARK  236  A    between atoms: _594  and  _595
REMARK  237  A    between atoms: _594  and  _597
REMARK  238  A    between atoms: _600  and  _602
REMARK  239  A    between atoms: _602  and  _603
REMARK  240  A    between atoms: _602  and  _605
REMARK  241  A    between atoms: _605  and  _606
REMARK  242  A    between atoms: _611  and  _613
REMARK  243  A    between atoms: _613  and  _614
REMARK  244  A    between atoms: _616  and  _618
REMARK  245  A    between atoms: _618  and  _619
REMARK  246  A    between atoms: _618  and  _621
REMARK  247  A    between atoms: _621  and  _622
REMARK  248  A    between atoms: _627  and  _629
REMARK  249  A    between atoms: _629  and  _630
REMARK                            x       y       z     vdW  Elec       q    Type
REMARK                         _______ _______ _______ _____ _____    ______ ____
ROOT
ATOM      1  CA  ILE A   1       6.858  70.313  18.096  0.00  0.00    +0.133 C 
ENDROOT
BRANCH   1   2
ATOM      2  N   ILE A   1       7.955  69.349  18.189  0.00  0.00    -0.239 NA
ATOM      3  H   ILE A   1       8.551  69.357  19.041  0.00  0.00    +0.142 HD
ENDBRANCH   1   2
BRANCH   1   4
ATOM      4  CB  ILE A   1       6.666  71.054  19.501  0.00  0.00    +0.023 C 
ATOM      5  CG2 ILE A   1       7.888  71.853  19.886  0.00  0.00    +0.002 C 
BRANCH   4   6
ATOM      6  CG1 ILE A   1       5.384  71.899  19.425  0.00  0.00    +0.002 C 
ATOM      7  CD1 ILE A   1       5.144  72.912  20.553  0.00  0.00    +0.000 C 
ENDBRANCH   4   6
ENDBRANCH   1   4
BRANCH   1   8
ATOM      8  C   ILE A   1       7.114  71.319  16.953  0.00  0.00    +0.224 C 
ATOM      9  O   ILE A   1       6.136  71.668  16.263  0.00  0.00    -0.287 OA
ENDBRANCH   1   8
TORSDOF 4
REMARK  Name = ../refined-set-2016/1tkb/1tkb_pocket.pdb
REMARK  249 active torsions:
REMARK  status: ('A' for Active; 'I' for Inactive)
REMARK    1  A    between atoms: _1  and  _3
REMARK    2  A    between atoms: _3  and  _4
REMARK    3  A    between atoms: _3  and  _6
REMARK    4  A    between atoms: _6  and  _7
REMARK    5  A    between atoms: _9  and  _11
REMARK    6  A    between atoms: _11  and  _12
REMARK    7  A    between atoms: _15  and  _17
REMARK    8  A    between atoms: _17  and  _18
REMARK    9  A    between atoms: _17  and  _20
REMARK   10  A    between atoms: _20  and  _21
REMARK   11  A    between atoms: _24  and  _26
REMARK   12  A    between atoms: _26  and  _27
REMARK   13  A    between atoms: _26  and  _29
REMARK   14  A    between atoms: _29  and  _30
REMARK   15  A    between atoms: _33  and  _35
REMARK   16  A    between atoms: _35  and  _36
REMARK   17  A    between atoms: _35  and  _38
REMARK   18  A    between atoms: _38  and  _39
REMARK   19  A    between atoms: _42  and  _44
REMARK   20  A    between atoms: _44  and  _45
REMARK   21  A    between atoms: _44  and  _47
REMARK   22  A    between atoms: _47  and  _48
REMARK   23  A    between atoms: _50  and  _52
REMARK   24  A    between atoms: _52  and  _53
REMARK   25  A    between atoms: _52  and  _55
REMARK   26  A    between atoms: _55  and  _56
REMARK   27  A    between atoms: _61  and  _63
REMARK   28  A    between atoms: _63  and  _64
REMARK   29  A    between atoms: _66  and  _68
REMARK   30  A    between atoms: _68  and  _69
REMARK   31  A    between atoms: _68  and  _71
REMARK   32  A    between atoms: _71  and  _72
REMARK   33  A    between atoms: _75  and  _77
REMARK   34  A    between atoms: _77  and  _78
REMARK   35  A    between atoms: _77  and  _80
REMARK   36  A    between atoms: _80  and  _81
REMARK   37  A    between atoms: _81  and  _82
REMARK   38  A    between atoms: _82  and  _83
REMARK   39  A    between atoms: _92  and  _94
REMARK   40  A    between atoms: _94  and  _95
REMARK   41  A    between atoms: _94  and  _97
REMARK   42  A    between atoms: _97  and  _98
REMARK   43  A    between atoms: _98  and  _99
REMARK   44  A    between atoms: _102  and  _104
REMARK   45  A    between atoms: _104  and  _105
REMARK   46  A    between atoms: _104  and  _107
REMARK   47  A    between atoms: _107  and  _108
REMARK   48  A    between atoms: _113  and  _115
REMARK   49  A    between atoms: _115  and  _116
REMARK   50  A    between atoms: _115  and  _118
REMARK   51  A    between atoms: _118  and  _119
REMARK   52  A    between atoms: _122  and  _124
REMARK   53  A    between atoms: _124  and  _125
REMARK   54  A    between atoms: _124  and  _127
REMARK   55  A    between atoms: _127  and  _128
REMARK   56  A    between atoms: _134  and  _136
REMARK   57  A    between atoms: _136  and  _137
REMARK   58  A    between atoms: _136  and  _139
REMARK   59  A    between atoms: _139  and  _140
REMARK   60  A    between atoms: _145  and  _147
REMARK   61  A    between atoms: _147  and  _148
REMARK   62  A    between atoms: _147  and  _150
REMARK   63  A    between atoms: _150  and  _151
REMARK   64  A    between atoms: _157  and  _159
REMARK   65  A    between atoms: _159  and  _160
REMARK   66  A    between atoms: _159  and  _162
REMARK   67  A    between atoms: _165  and  _167
REMARK   68  A    between atoms: _167  and  _168
REMARK   69  A    between atoms: _167  and  _170
REMARK   70  A    between atoms: _170  and  _171
REMARK   71  A    between atoms: _176  and  _177
REMARK   72  A    between atoms: _179  and  _181
REMARK   73  A    between atoms: _181  and  _182
REMARK   74  A    between atoms: _181  and  _184
REMARK   75  A    between atoms: _184  and  _185
REMARK   76  A    between atoms: _188  and  _190
REMARK   77  A    between atoms: _190  and  _191
REMARK   78  A    between atoms: _190  and  _193
REMARK   79  A    between atoms: _193  and  _194
REMARK   80  A    between atoms: _197  and  _199
REMARK   81  A    between atoms: _199  and  _200
REMARK   82  A    between atoms: _199  and  _202
REMARK   83  A    between atoms: _202  and  _203
REMARK   84  A    between atoms: _208  and  _210
REMARK   85  A    between atoms: _210  and  _211
REMARK   86  A    between atoms: _210  and  _213
REMARK   87  A    between atoms: _213  and  _214
REMARK   88  A    between atoms: _220  and  _221
REMARK   89  A    between atoms: _226  and  _228
REMARK   90  A    between atoms: _228  and  _229
REMARK   91  A    between atoms: _231  and  _233
REMARK   92  A    between atoms: _233  and  _234
REMARK   93  A    between atoms: _238  and  _239
REMARK   94  A    between atoms: _244  and  _246
REMARK   95  A    between atoms: _246  and  _247
REMARK   96  A    between atoms: _249  and  _251
REMARK   97  A    between atoms: _251  and  _252
REMARK   98  A    between atoms: _251  and  _254
REMARK   99  A    between atoms: _254  and  _255
REMARK  100  A    between atoms: _255  and  _256
REMARK  101  A    between atoms: _258  and  _260
REMARK  102  A    between atoms: _260  and  _261
REMARK  103  A    between atoms: _260  and  _263
REMARK  104  A    between atoms: _263  and  _264
REMARK  105  A    between atoms: _266  and  _268
REMARK  106  A    between atoms: _268  and  _269
REMARK  107  A    between atoms: _268  and  _271
REMARK  108  A    between atoms: _271  and  _272
REMARK  109  A    between atoms: _277  and  _279
REMARK  110  A    between atoms: _279  and  _280
REMARK  111  A    between atoms: _282  and  _284
REMARK  112  A    between atoms: _284  and  _285
REMARK  113  A    between atoms: _284  and  _287
REMARK  114  A    between atoms: _287  and  _288
REMARK  115  A    between atoms: _293  and  _295
REMARK  116  A    between atoms: _295  and  _296
REMARK  117  A    between atoms: _299  and  _301
REMARK  118  A    between atoms: _301  and  _302
REMARK  119  A    between atoms: _301  and  _304
REMARK  120  A    between atoms: _304  and  _305
REMARK  121  A    between atoms: _310  and  _312
REMARK  122  A    between atoms: _312  and  _313
REMARK  123  A    between atoms: _312  and  _315
REMARK  124  A    between atoms: _315  and  _316
REMARK  125  A    between atoms: _319  and  _321
REMARK  126  A    between atoms: _321  and  _322
REMARK  127  A    between atoms: _325  and  _326
REMARK  128  A    between atoms: _331  and  _333
REMARK  129  A    between atoms: _333  and  _334
REMARK  130  A    between atoms: _333  and  _336
REMARK  131  A    between atoms: _336  and  _337
REMARK  132  A    between atoms: _340  and  _342
REMARK  133  A    between atoms: _342  and  _343
REMARK  134  A    between atoms: _345  and  _347
REMARK  135  A    between atoms: _347  and  _348
REMARK  136  A    between atoms: _347  and  _350
REMARK  137  A    between atoms: _350  and  _351
REMARK  138  A    between atoms: _351  and  _352
REMARK  139  A    between atoms: _357  and  _359
REMARK  140  A    between atoms: _359  and  _360
REMARK  141  A    between atoms: _359  and  _362
REMARK  142  A    between atoms: _362  and  _363
REMARK  143  A    between atoms: _366  and  _368
REMARK  144  A    between atoms: _368  and  _369
REMARK  145  A    between atoms: _371  and  _373
REMARK  146  A    between atoms: _373  and  _374
REMARK  147  A    between atoms: _373  and  _376
REMARK  148  A    between atoms: _376  and  _377
REMARK  149  A    between atoms: _380  and  _382
REMARK  150  A    between atoms: _382  and  _383
REMARK  151  A    between atoms: _385  and  _387
REMARK  152  A    between atoms: _387  and  _388
REMARK  153  A    between atoms: _387  and  _390
REMARK  154  A    between atoms: _392  and  _394
REMARK  155  A    between atoms: _394  and  _395
REMARK  156  A    between atoms: _394  and  _397
REMARK  157  A    between atoms: _397  and  _398
REMARK  158  A    between atoms: _401  and  _403
REMARK  159  A    between atoms: _403  and  _404
REMARK  160  A    between atoms: _403  and  _406
REMARK  161  A    between atoms: _406  and  _407
REMARK  162  A    between atoms: _407  and  _408
REMARK  163  A    between atoms: _413  and  _415
REMARK  164  A    between atoms: _415  and  _416
REMARK  165  A    between atoms: _415  and  _418
REMARK  166  A    between atoms: _418  and  _419
REMARK  167  A    between atoms: _419  and  _420
REMARK  168  A    between atoms: _423  and  _425
REMARK  169  A    between atoms: _425  and  _426
REMARK  170  A    between atoms: _425  and  _428
REMARK  171  A    between atoms: _428  and  _429
REMARK  172  A    between atoms: _432  and  _434
REMARK  173  A    between atoms: _434  and  _435
REMARK  174  A    between atoms: _434  and  _437
REMARK  175  A    between atoms: _437  and  _438
REMARK  176  A    between atoms: _443  and  _444
REMARK  177  A    between atoms: _446  and  _448
REMARK  178  A    between atoms: _448  and  _449
REMARK  179  A    between atoms: _448  and  _451
REMARK  180  A    between atoms: _451  and  _452
REMARK  181  A    between atoms: _455  and  _457
REMARK  182  A    between atoms: _457  and  _458
REMARK  183  A    between atoms: _457  and  _460
REMARK  184  A    between atoms: _460  and  _461
REMARK  185  A    between atoms: _464  and  _466
REMARK  186  A    between atoms: _470  and  _472
REMARK  187  A    between atoms: _477  and  _480
REMARK  188  A    between atoms: _480  and  _481
REMARK  189  A    between atoms: _481  and  _482
REMARK  190  A    between atoms: _482  and  _483
REMARK  191  A    between atoms: _483  and  _484
REMARK  192  A    between atoms: _490  and  _493
REMARK  193  A    between atoms: _491  and  _497
REMARK  194  A    between atoms: _493  and  _494
REMARK  195  A    between atoms: _497  and  _499
REMARK  196  A    between atoms: _499  and  _500
REMARK  197  A    between atoms: _499  and  _502
REMARK  198  A    between atoms: _502  and  _503
REMARK  199  A    between atoms: _506  and  _508
REMARK  200  A    between atoms: _508  and  _509
REMARK  201  A    between atoms: _508  and  _511
REMARK  202  A    between atoms: _511  and  _512
REMARK  203  A    between atoms: _515  and  _517
REMARK  204  A    between atoms: _517  and  _518
REMARK  205  A    between atoms: _517  and  _520
REMARK  206  A    between atoms: _520  and  _521
REMARK  207  A    between atoms: _524  and  _526
REMARK  208  A    between atoms: _526  and  _527
REMARK  209  A    between atoms: _529  and  _531
REMARK  210  A    between atoms: _531  and  _532
REMARK  211  A    between atoms: _531  and  _534
REMARK  212  A    between atoms: _534  and  _535
REMARK  213  A    between atoms: _538  and  _540
REMARK  214  A    between atoms: _540  and  _541
REMARK  215  A    between atoms: _540  and  _543
REMARK  216  A    between atoms: _543  and  _544
REMARK  217  A    between atoms: _550  and  _552
REMARK  218  A    between atoms: _552  and  _553
REMARK  219  A    between atoms: _552  and  _555
REMARK  220  A    between atoms: _555  and  _556
REMARK  221  A    between atoms: _559  and  _561
REMARK  222  A    between atoms: _561  and  _562
REMARK  223  A    between atoms: _561  and  _564
REMARK  224  A    between atoms: _564  and  _565
REMARK  225  A    between atoms: _568  and  _570
REMARK  226  A    between atoms: _570  and  _571
REMARK  227  A    between atoms: _573  and  _575
REMARK  228  A    between atoms: _575  and  _576
REMARK  229  A    between atoms: _575  and  _578
REMARK  230  A    between atoms: _578  and  _579
REMARK  231  A    between atoms: _581  and  _583
REMARK  232  A    between atoms: _583  and  _584
REMARK  233  A    between atoms: _583  and  _586
REMARK  234  A    between atoms: _586  and  _587
REMARK  235  A    between atoms: _592  and  _594
REMARK  236  A    between atoms: _594  and  _595
REMARK  237  A    between atoms: _594  and  _597
REMARK  238  A    between atoms: _600  and  _602
REMARK  239  A    between atoms: _602  and  _603
REMARK  240  A    between atoms: _602  and  _605
REMARK  241  A    between atoms: _605  and  _606
REMARK  242  A    between atoms: _611  and  _613
REMARK  243  A    between atoms: _613  and  _614
REMARK  244  A    between atoms: _616  and  _618
REMARK  245  A    between atoms: _618  and  _619
REMARK  246  A    between atoms: _618  and  _621
REMARK  247  A    between atoms: _621  and  _622
REMARK  248  A    between atoms: _627  and  _629
REMARK  249  A    between atoms: _629  and  _630
REMARK                            x       y       z     vdW  Elec       q    Type
REMARK                         _______ _______ _______ _____ _____    ______ ____
ROOT
ATOM      1  C   UNK A   0      25.814  78.186  13.593  0.00  0.00    +0.000 C 
ATOM      2  C   UNK A   0      25.698  78.917  14.925  0.00  0.00    +0.000 C 
ATOM      3  C   UNK A   0      25.039  78.260  16.139  0.00  0.00    +0.000 C 
ATOM      4  O   UNK A   0      24.326  77.193  16.252  0.00  0.00    +0.000 OA
ATOM      5 CA   UNK A   0      23.352  76.585  17.590  0.00  0.00    +0.000 Ca
ATOM      6  O   UNK A   0      24.618  75.161  17.980  0.00  0.00    +0.000 OA
ATOM      7  C   UNK A   0      25.642  74.490  18.370  0.00  0.00    +0.000 C 
ATOM      8  C   UNK A   0      26.983  74.438  17.607  0.00  0.00    +0.000 C 
ATOM      9  N   UNK A   0      26.698  74.608  16.196  0.00  0.00    +0.000 N 
ATOM     10  H   UNK A   0      25.901  75.226  15.944  0.00  0.00    +0.000 HD
ATOM     11  C   UNK A   0      27.372  74.038  15.189  0.00  0.00    +0.000 C 
ATOM     12  O   UNK A   0      28.233  73.175  15.418  0.00  0.00    +0.000 OA
ATOM     13  C   UNK A   0      26.896  74.471  13.767  0.00  0.00    +0.000 C 
ATOM     14  N   UNK A   0      26.192  75.765  13.579  0.00  0.00    +0.000 N 
ATOM     15  H   UNK A   0      25.205  75.722  13.253  0.00  0.00    +0.000 HD
ATOM     16  C   UNK A   0      26.715  76.997  13.793  0.00  0.00    +0.000 C 
ATOM     17  O   UNK A   0      27.857  77.220  14.201  0.00  0.00    +0.000 OA
ENDROOT
BRANCH   1  19
ATOM     18  C   UNK A   0      24.384  78.090  11.729  0.00  0.00    +0.000 C 
ATOM     19  N   UNK A   0      24.506  77.950  13.041  0.00  0.00    +0.000 N 
ATOM     20  H   UNK A   0      23.699  77.684  13.640  0.00  0.00    +0.000 HD
ATOM     21  O   UNK A   0      25.326  78.365  10.978  0.00  0.00    +0.000 OA
BRANCH  18  22
ATOM     22  C   UNK A   0      22.961  77.877  11.264  0.00  0.00    +0.000 C 
BRANCH  22  25
ATOM     23  C   UNK A   0      21.671  79.257  12.664  0.00  0.00    +0.000 C 
ATOM     24  O   UNK A   0      21.774  78.378  13.515  0.00  0.00    +0.000 OA
ATOM     25  N   UNK A   0      22.276  79.108  11.539  0.00  0.00    +0.000 N 
ATOM     26  H   UNK A   0      22.269  79.873  10.834  0.00  0.00    +0.000 HD
BRANCH  23  27
ATOM     27  C   UNK A   0      20.899  80.549  12.827  0.00  0.00    +0.000 C 
BRANCH  27  29
ATOM     28  C   UNK A   0      19.068  80.320  11.190  0.00  0.00    +0.000 C 
ATOM     29  N   UNK A   0      19.518  80.335  12.448  0.00  0.00    +0.000 N 
ATOM     30  H   UNK A   0      18.827  80.182  13.210  0.00  0.00    +0.000 HD
ATOM     31  O   UNK A   0      19.749  80.383  10.151  0.00  0.00    +0.000 OA
BRANCH  28  32
ATOM     32  C   UNK A   0      17.574  80.080  11.147  0.00  0.00    +0.000 C 
BRANCH  32  33
ATOM     33  N   UNK A   0      16.965  81.036  10.289  0.00  0.00    +0.000 NA
ATOM     34  H   UNK A   0      17.158  80.986   9.268  0.00  0.00    +0.000 HD
ENDBRANCH  32  33
BRANCH  32  35
ATOM     35  C   UNK A   0      17.194  78.719  10.591  0.00  0.00    +0.000 C 
BRANCH  35  36
ATOM     36  C   UNK A   0      18.139  77.569  10.869  0.00  0.00    +0.000 A 
ATOM     37  C   UNK A   0      18.489  77.276  12.176  0.00  0.00    +0.000 A 
ATOM     38  C   UNK A   0      19.318  76.232  12.452  0.00  0.00    +0.000 A 
ATOM     39  C   UNK A   0      19.783  75.483  11.409  0.00  0.00    +0.000 A 
ATOM     40  C   UNK A   0      19.452  75.772  10.096  0.00  0.00    +0.000 A 
ATOM     41  C   UNK A   0      18.617  76.826   9.818  0.00  0.00    +0.000 A 
BRANCH  39  42
ATOM     42  O   UNK A   0      20.537  74.363  11.714  0.00  0.00    +0.000 OA
ATOM     43  H   UNK A   0      20.675  74.316  12.693  0.00  0.00    +0.000 HD
ENDBRANCH  39  42
ENDBRANCH  35  36
ENDBRANCH  32  35
ENDBRANCH  28  32
ENDBRANCH  27  29
BRANCH  27  44
ATOM     44  C   UNK A   0      20.965  81.065  14.299  0.00  0.00    +0.000 C 
BRANCH  44  45
ATOM     45  C   UNK A   0      22.330  81.600  14.765  0.00  0.00    +0.000 C 
ATOM     46  O   UNK A   0      22.663  81.522  15.966  0.00  0.00    +0.000 OA
ATOM     47  O   UNK A   0      23.064  82.109  13.920  0.00  0.00    +0.000 OA
ENDBRANCH  44  45
ENDBRANCH  27  44
ENDBRANCH  23  27
ENDBRANCH  22  25
BRANCH  22  48
ATOM     48  C   UNK A   0      22.788  77.637   9.775  0.00  0.00    +0.000 C 
BRANCH  48  49
ATOM     49  C   UNK A   0      23.606  76.537   9.130  0.00  0.00    +0.000 C 
ATOM     50  O   UNK A   0      24.074  75.608   9.798  0.00  0.00    +0.000 OA
ATOM     51  O   UNK A   0      23.760  76.622   7.915  0.00  0.00    +0.000 OA
ENDBRANCH  48  49
ENDBRANCH  22  48
ENDBRANCH  18  22
ENDBRANCH   1  19
BRANCH   3  52
ATOM     52  N   UNK A   0      25.276  79.055  17.168  0.00  0.00    +0.000 N 
ATOM     53  H   UNK A   0      24.882  78.826  18.103  0.00  0.00    +0.000 HD
ATOM     54  H   UNK A   0      25.856  79.909  17.043  0.00  0.00    +0.000 HD
ENDBRANCH   3  52
BRANCH   8  55
ATOM     55  C   UNK A   0      27.954  75.593  18.039  0.00  0.00    +0.000 C 
ATOM     56  C   UNK A   0      28.037  75.706  19.566  0.00  0.00    +0.000 C 
BRANCH  55  57
ATOM     57  C   UNK A   0      29.347  75.352  17.463  0.00  0.00    +0.000 C 
ATOM     58  C   UNK A   0      30.199  74.262  18.128  0.00  0.00    +0.000 C 
ENDBRANCH  55  57
ENDBRANCH   8  55
BRANCH   7  59
ATOM     59  N   THR A   1      25.665  73.617  19.367  0.00  0.00    +0.000 NA
ATOM     60  H   THR A   1      26.459  72.948  19.416  0.00  0.00    +0.000 HD
BRANCH  59  61
ATOM     61  CA  THR A   1      24.649  73.545  20.386  0.00  0.00    +0.000 C 
BRANCH  61  62
ATOM     62  C   THR A   1      25.426  73.330  21.700  0.00  0.00    +0.000 C 
ATOM     63  N   ILE A   2      24.835  72.982  22.874  0.00  0.00    +0.000 N 
ATOM     64  H   ILE A   2      23.807  72.829  22.895  0.00  0.00    +0.000 HD
ATOM     65  O   THR A   1      26.659  73.454  21.646  0.00  0.00    +0.000 OA
BRANCH  63  66
ATOM     66  CA  ILE A   2      25.612  72.814  24.124  0.00  0.00    +0.000 C 
BRANCH  66  67
ATOM     67  C   ILE A   2      26.675  71.706  24.076  0.00  0.00    +0.000 C 
ATOM     68  O   ILE A   2      27.854  71.960  24.340  0.00  0.00    +0.000 OA
ATOM     69  N   ASP A   3      26.333  70.470  23.723  0.00  0.00    +0.000 N 
ATOM     70  H   ASP A   3      25.355  70.269  23.432  0.00  0.00    +0.000 HD
BRANCH  69  71
ATOM     71  CA  ASP A   3      27.305  69.408  23.741  0.00  0.00    +0.000 C 
BRANCH  71  72
ATOM     72  C   ASP A   3      28.498  69.548  22.830  0.00  0.00    +0.000 C 
ATOM     73  O   ASP A   3      29.524  68.889  23.023  0.00  0.00    +0.000 OA
ATOM     74  N   GLY A   4      28.445  70.395  21.835  0.00  0.00    +0.000 N 
ATOM     75  H   GLY A   4      27.604  70.988  21.686  0.00  0.00    +0.000 HD
BRANCH  74  76
ATOM     76  CA  GLY A   4      29.568  70.487  20.957  0.00  0.00    +0.000 C 
BRANCH  76  77
ATOM     77  C   GLY A   4      28.992  70.694  19.608  0.00  0.00    +0.000 C 
ATOM     78  O   GLY A   4      27.959  71.353  19.510  0.00  0.00    +0.000 OA
ENDBRANCH  76  77
ENDBRANCH  74  76
ENDBRANCH  71  72
BRANCH  71  79
ATOM     79  CB  ASP A   3      26.626  68.094  23.427  0.00  0.00    +0.000 C 
BRANCH  79  80
ATOM     80  CG  ASP A   3      25.961  67.440  24.628  0.00  0.00    +0.000 C 
ATOM     81  OD2 ASP A   3      25.879  68.068  25.704  0.00  0.00    +0.000 OA
ATOM     82  OD1 ASP A   3      25.534  66.290  24.462  0.00  0.00    +0.000 OA
ENDBRANCH  79  80
ENDBRANCH  71  79
ENDBRANCH  69  71
ENDBRANCH  66  67
BRANCH  66  83
ATOM     83  CB  ILE A   2      24.611  72.559  25.332  0.00  0.00    +0.000 C 
ATOM     84  CG2 ILE A   2      25.272  72.048  26.647  0.00  0.00    +0.000 C 
BRANCH  83  85
ATOM     85  CG1 ILE A   2      23.876  73.876  25.514  0.00  0.00    +0.000 C 
ATOM     86  CD1 ILE A   2      22.949  73.866  26.734  0.00  0.00    +0.000 C 
ENDBRANCH  83  85
ENDBRANCH  66  83
ENDBRANCH  63  66
ENDBRANCH  61  62
BRANCH  61  87
ATOM     87  CB  THR A   1      23.671  72.360  20.162  0.00  0.00    +0.000 C 
ATOM     88  CG2 THR A   1      22.788  72.535  18.946  0.00  0.00    +0.000 C 
BRANCH  87  89
ATOM     89  OG1 THR A   1      24.462  71.189  20.116  0.00  0.00    +0.000 OA
ATOM     90  HG1 THR A   1      23.878  70.403  19.974  0.00  0.00    +0.000 HD
ENDBRANCH  87  89
ENDBRANCH  61  87
ENDBRANCH  59  61
ENDBRANCH   7  59
BRANCH  13  91
ATOM     91  C   UNK A   0      28.104  74.436  12.771  0.00  0.00    +0.000 C 
BRANCH  91  92
ATOM     92  C   UNK A   0      27.831  74.122  11.259  0.00  0.00    +0.000 C 
BRANCH  92  93
ATOM     93  C   UNK A   0      27.398  75.254  10.304  0.00  0.00    +0.000 C 
BRANCH  93  94
ATOM     94  C   UNK A   0      27.053  74.571   8.977  0.00  0.00    +0.000 C 
BRANCH  94  95
ATOM     95  N   UNK A   0      26.505  75.449   7.946  0.00  0.00    +0.000 N 
ATOM     96  H   UNK A   0      25.625  75.882   8.293  0.00  0.00    +0.000 HD
ATOM     97  H   UNK A   0      27.196  76.194   7.724  0.00  0.00    +0.000 HD
ATOM     98  H   UNK A   0      26.305  74.894   7.090  0.00  0.00    +0.000 HD
ENDBRANCH  94  95
ENDBRANCH  93  94
ENDBRANCH  92  93
ENDBRANCH  91  92
ENDBRANCH  13  91
TORSDOF 37
REMARK  Name = ../refined-set-2016/1tkb/1tkb_pocket.pdb
REMARK  249 active torsions:
REMARK  status: ('A' for Active; 'I' for Inactive)
REMARK    1  A    between atoms: _1  and  _3
REMARK    2  A    between atoms: _3  and  _4
REMARK    3  A    between atoms: _3  and  _6
REMARK    4  A    between atoms: _6  and  _7
REMARK    5  A    between atoms: _9  and  _11
REMARK    6  A    between atoms: _11  and  _12
REMARK    7  A    between atoms: _15  and  _17
REMARK    8  A    between atoms: _17  and  _18
REMARK    9  A    between atoms: _17  and  _20
REMARK   10  A    between atoms: _20  and  _21
REMARK   11  A    between atoms: _24  and  _26
REMARK   12  A    between atoms: _26  and  _27
REMARK   13  A    between atoms: _26  and  _29
REMARK   14  A    between atoms: _29  and  _30
REMARK   15  A    between atoms: _33  and  _35
REMARK   16  A    between atoms: _35  and  _36
REMARK   17  A    between atoms: _35  and  _38
REMARK   18  A    between atoms: _38  and  _39
REMARK   19  A    between atoms: _42  and  _44
REMARK   20  A    between atoms: _44  and  _45
REMARK   21  A    between atoms: _44  and  _47
REMARK   22  A    between atoms: _47  and  _48
REMARK   23  A    between atoms: _50  and  _52
REMARK   24  A    between atoms: _52  and  _53
REMARK   25  A    between atoms: _52  and  _55
REMARK   26  A    between atoms: _55  and  _56
REMARK   27  A    between atoms: _61  and  _63
REMARK   28  A    between atoms: _63  and  _64
REMARK   29  A    between atoms: _66  and  _68
REMARK   30  A    between atoms: _68  and  _69
REMARK   31  A    between atoms: _68  and  _71
REMARK   32  A    between atoms: _71  and  _72
REMARK   33  A    between atoms: _75  and  _77
REMARK   34  A    between atoms: _77  and  _78
REMARK   35  A    between atoms: _77  and  _80
REMARK   36  A    between atoms: _80  and  _81
REMARK   37  A    between atoms: _81  and  _82
REMARK   38  A    between atoms: _82  and  _83
REMARK   39  A    between atoms: _92  and  _94
REMARK   40  A    between atoms: _94  and  _95
REMARK   41  A    between atoms: _94  and  _97
REMARK   42  A    between atoms: _97  and  _98
REMARK   43  A    between atoms: _98  and  _99
REMARK   44  A    between atoms: _102  and  _104
REMARK   45  A    between atoms: _104  and  _105
REMARK   46  A    between atoms: _104  and  _107
REMARK   47  A    between atoms: _107  and  _108
REMARK   48  A    between atoms: _113  and  _115
REMARK   49  A    between atoms: _115  and  _116
REMARK   50  A    between atoms: _115  and  _118
REMARK   51  A    between atoms: _118  and  _119
REMARK   52  A    between atoms: _122  and  _124
REMARK   53  A    between atoms: _124  and  _125
REMARK   54  A    between atoms: _124  and  _127
REMARK   55  A    between atoms: _127  and  _128
REMARK   56  A    between atoms: _134  and  _136
REMARK   57  A    between atoms: _136  and  _137
REMARK   58  A    between atoms: _136  and  _139
REMARK   59  A    between atoms: _139  and  _140
REMARK   60  A    between atoms: _145  and  _147
REMARK   61  A    between atoms: _147  and  _148
REMARK   62  A    between atoms: _147  and  _150
REMARK   63  A    between atoms: _150  and  _151
REMARK   64  A    between atoms: _157  and  _159
REMARK   65  A    between atoms: _159  and  _160
REMARK   66  A    between atoms: _159  and  _162
REMARK   67  A    between atoms: _165  and  _167
REMARK   68  A    between atoms: _167  and  _168
REMARK   69  A    between atoms: _167  and  _170
REMARK   70  A    between atoms: _170  and  _171
REMARK   71  A    between atoms: _176  and  _177
REMARK   72  A    between atoms: _179  and  _181
REMARK   73  A    between atoms: _181  and  _182
REMARK   74  A    between atoms: _181  and  _184
REMARK   75  A    between atoms: _184  and  _185
REMARK   76  A    between atoms: _188  and  _190
REMARK   77  A    between atoms: _190  and  _191
REMARK   78  A    between atoms: _190  and  _193
REMARK   79  A    between atoms: _193  and  _194
REMARK   80  A    between atoms: _197  and  _199
REMARK   81  A    between atoms: _199  and  _200
REMARK   82  A    between atoms: _199  and  _202
REMARK   83  A    between atoms: _202  and  _203
REMARK   84  A    between atoms: _208  and  _210
REMARK   85  A    between atoms: _210  and  _211
REMARK   86  A    between atoms: _210  and  _213
REMARK   87  A    between atoms: _213  and  _214
REMARK   88  A    between atoms: _220  and  _221
REMARK   89  A    between atoms: _226  and  _228
REMARK   90  A    between atoms: _228  and  _229
REMARK   91  A    between atoms: _231  and  _233
REMARK   92  A    between atoms: _233  and  _234
REMARK   93  A    between atoms: _238  and  _239
REMARK   94  A    between atoms: _244  and  _246
REMARK   95  A    between atoms: _246  and  _247
REMARK   96  A    between atoms: _249  and  _251
REMARK   97  A    between atoms: _251  and  _252
REMARK   98  A    between atoms: _251  and  _254
REMARK   99  A    between atoms: _254  and  _255
REMARK  100  A    between atoms: _255  and  _256
REMARK  101  A    between atoms: _258  and  _260
REMARK  102  A    between atoms: _260  and  _261
REMARK  103  A    between atoms: _260  and  _263
REMARK  104  A    between atoms: _263  and  _264
REMARK  105  A    between atoms: _266  and  _268
REMARK  106  A    between atoms: _268  and  _269
REMARK  107  A    between atoms: _268  and  _271
REMARK  108  A    between atoms: _271  and  _272
REMARK  109  A    between atoms: _277  and  _279
REMARK  110  A    between atoms: _279  and  _280
REMARK  111  A    between atoms: _282  and  _284
REMARK  112  A    between atoms: _284  and  _285
REMARK  113  A    between atoms: _284  and  _287
REMARK  114  A    between atoms: _287  and  _288
REMARK  115  A    between atoms: _293  and  _295
REMARK  116  A    between atoms: _295  and  _296
REMARK  117  A    between atoms: _299  and  _301
REMARK  118  A    between atoms: _301  and  _302
REMARK  119  A    between atoms: _301  and  _304
REMARK  120  A    between atoms: _304  and  _305
REMARK  121  A    between atoms: _310  and  _312
REMARK  122  A    between atoms: _312  and  _313
REMARK  123  A    between atoms: _312  and  _315
REMARK  124  A    between atoms: _315  and  _316
REMARK  125  A    between atoms: _319  and  _321
REMARK  126  A    between atoms: _321  and  _322
REMARK  127  A    between atoms: _325  and  _326
REMARK  128  A    between atoms: _331  and  _333
REMARK  129  A    between atoms: _333  and  _334
REMARK  130  A    between atoms: _333  and  _336
REMARK  131  A    between atoms: _336  and  _337
REMARK  132  A    between atoms: _340  and  _342
REMARK  133  A    between atoms: _342  and  _343
REMARK  134  A    between atoms: _345  and  _347
REMARK  135  A    between atoms: _347  and  _348
REMARK  136  A    between atoms: _347  and  _350
REMARK  137  A    between atoms: _350  and  _351
REMARK  138  A    between atoms: _351  and  _352
REMARK  139  A    between atoms: _357  and  _359
REMARK  140  A    between atoms: _359  and  _360
REMARK  141  A    between atoms: _359  and  _362
REMARK  142  A    between atoms: _362  and  _363
REMARK  143  A    between atoms: _366  and  _368
REMARK  144  A    between atoms: _368  and  _369
REMARK  145  A    between atoms: _371  and  _373
REMARK  146  A    between atoms: _373  and  _374
REMARK  147  A    between atoms: _373  and  _376
REMARK  148  A    between atoms: _376  and  _377
REMARK  149  A    between atoms: _380  and  _382
REMARK  150  A    between atoms: _382  and  _383
REMARK  151  A    between atoms: _385  and  _387
REMARK  152  A    between atoms: _387  and  _388
REMARK  153  A    between atoms: _387  and  _390
REMARK  154  A    between atoms: _392  and  _394
REMARK  155  A    between atoms: _394  and  _395
REMARK  156  A    between atoms: _394  and  _397
REMARK  157  A    between atoms: _397  and  _398
REMARK  158  A    between atoms: _401  and  _403
REMARK  159  A    between atoms: _403  and  _404
REMARK  160  A    between atoms: _403  and  _406
REMARK  161  A    between atoms: _406  and  _407
REMARK  162  A    between atoms: _407  and  _408
REMARK  163  A    between atoms: _413  and  _415
REMARK  164  A    between atoms: _415  and  _416
REMARK  165  A    between atoms: _415  and  _418
REMARK  166  A    between atoms: _418  and  _419
REMARK  167  A    between atoms: _419  and  _420
REMARK  168  A    between atoms: _423  and  _425
REMARK  169  A    between atoms: _425  and  _426
REMARK  170  A    between atoms: _425  and  _428
REMARK  171  A    between atoms: _428  and  _429
REMARK  172  A    between atoms: _432  and  _434
REMARK  173  A    between atoms: _434  and  _435
REMARK  174  A    between atoms: _434  and  _437
REMARK  175  A    between atoms: _437  and  _438
REMARK  176  A    between atoms: _443  and  _444
REMARK  177  A    between atoms: _446  and  _448
REMARK  178  A    between atoms: _448  and  _449
REMARK  179  A    between atoms: _448  and  _451
REMARK  180  A    between atoms: _451  and  _452
REMARK  181  A    between atoms: _455  and  _457
REMARK  182  A    between atoms: _457  and  _458
REMARK  183  A    between atoms: _457  and  _460
REMARK  184  A    between atoms: _460  and  _461
REMARK  185  A    between atoms: _464  and  _466
REMARK  186  A    between atoms: _470  and  _472
REMARK  187  A    between atoms: _477  and  _480
REMARK  188  A    between atoms: _480  and  _481
REMARK  189  A    between atoms: _481  and  _482
REMARK  190  A    between atoms: _482  and  _483
REMARK  191  A    between atoms: _483  and  _484
REMARK  192  A    between atoms: _490  and  _493
REMARK  193  A    between atoms: _491  and  _497
REMARK  194  A    between atoms: _493  and  _494
REMARK  195  A    between atoms: _497  and  _499
REMARK  196  A    between atoms: _499  and  _500
REMARK  197  A    between atoms: _499  and  _502
REMARK  198  A    between atoms: _502  and  _503
REMARK  199  A    between atoms: _506  and  _508
REMARK  200  A    between atoms: _508  and  _509
REMARK  201  A    between atoms: _508  and  _511
REMARK  202  A    between atoms: _511  and  _512
REMARK  203  A    between atoms: _515  and  _517
REMARK  204  A    between atoms: _517  and  _518
REMARK  205  A    between atoms: _517  and  _520
REMARK  206  A    between atoms: _520  and  _521
REMARK  207  A    between atoms: _524  and  _526
REMARK  208  A    between atoms: _526  and  _527
REMARK  209  A    between atoms: _529  and  _531
REMARK  210  A    between atoms: _531  and  _532
REMARK  211  A    between atoms: _531  and  _534
REMARK  212  A    between atoms: _534  and  _535
REMARK  213  A    between atoms: _538  and  _540
REMARK  214  A    between atoms: _540  and  _541
REMARK  215  A    between atoms: _540  and  _543
REMARK  216  A    between atoms: _543  and  _544
REMARK  217  A    between atoms: _550  and  _552
REMARK  218  A    between atoms: _552  and  _553
REMARK  219  A    between atoms: _552  and  _555
REMARK  220  A    between atoms: _555  and  _556
REMARK  221  A    between atoms: _559  and  _561
REMARK  222  A    between atoms: _561  and  _562
REMARK  223  A    between atoms: _561  and  _564
REMARK  224  A    between atoms: _564  and  _565
REMARK  225  A    between atoms: _568  and  _570
REMARK  226  A    between atoms: _570  and  _571
REMARK  227  A    between atoms: _573  and  _575
REMARK  228  A    between atoms: _575  and  _576
REMARK  229  A    between atoms: _575  and  _578
REMARK  230  A    between atoms: _578  and  _579
REMARK  231  A    between atoms: _581  and  _583
REMARK  232  A    between atoms: _583  and  _584
REMARK  233  A    between atoms: _583  and  _586
REMARK  234  A    between atoms: _586  and  _587
REMARK  235  A    between atoms: _592  and  _594
REMARK  236  A    between atoms: _594  and  _595
REMARK  237  A    between atoms: _594  and  _597
REMARK  238  A    between atoms: _600  and  _602
REMARK  239  A    between atoms: _602  and  _603
REMARK  240  A    between atoms: _602  and  _605
REMARK  241  A    between atoms: _605  and  _606
REMARK  242  A    between atoms: _611  and  _613
REMARK  243  A    between atoms: _613  and  _614
REMARK  244  A    between atoms: _616  and  _618
REMARK  245  A    between atoms: _618  and  _619
REMARK  246  A    between atoms: _618  and  _621
REMARK  247  A    between atoms: _621  and  _622
REMARK  248  A    between atoms: _627  and  _629
REMARK  249  A    between atoms: _629  and  _630
REMARK                            x       y       z     vdW  Elec       q    Type
REMARK                         _______ _______ _______ _____ _____    ______ ____
ROOT
ATOM      1  CA  THR A   1      26.009  69.561  15.498  0.00  0.00    +0.000 C 
ENDROOT
BRANCH   1   2
ATOM      2  N   THR A   1      27.270  70.117  15.911  0.00  0.00    +0.000 NA
ATOM      3  H   THR A   1      27.634  70.963  15.428  0.00  0.00    +0.000 HD
ENDBRANCH   1   2
BRANCH   1   4
ATOM      4  C   THR A   1      26.187  68.158  14.951  0.00  0.00    +0.000 C 
ATOM      5  O   THR A   1      25.376  67.255  15.213  0.00  0.00    +0.000 OA
ENDBRANCH   1   4
BRANCH   1   6
ATOM      6  CB  THR A   1      25.390  70.467  14.443  0.00  0.00    +0.000 C 
ATOM      7  CG2 THR A   1      24.670  71.644  15.116  0.00  0.00    +0.000 C 
BRANCH   6   8
ATOM      8  OG1 THR A   1      26.436  70.829  13.525  0.00  0.00    +0.000 OA
ATOM      9  HG1 THR A   1      27.153  71.304  14.015  0.00  0.00    +0.000 HD
ENDBRANCH   6   8
ENDBRANCH   1   6
TORSDOF 4
REMARK  Name = ../refined-set-2016/1tkb/1tkb_pocket.pdb
REMARK  249 active torsions:
REMARK  status: ('A' for Active; 'I' for Inactive)
REMARK    1  A    between atoms: _1  and  _3
REMARK    2  A    between atoms: _3  and  _4
REMARK    3  A    between atoms: _3  and  _6
REMARK    4  A    between atoms: _6  and  _7
REMARK    5  A    between atoms: _9  and  _11
REMARK    6  A    between atoms: _11  and  _12
REMARK    7  A    between atoms: _15  and  _17
REMARK    8  A    between atoms: _17  and  _18
REMARK    9  A    between atoms: _17  and  _20
REMARK   10  A    between atoms: _20  and  _21
REMARK   11  A    between atoms: _24  and  _26
REMARK   12  A    between atoms: _26  and  _27
REMARK   13  A    between atoms: _26  and  _29
REMARK   14  A    between atoms: _29  and  _30
REMARK   15  A    between atoms: _33  and  _35
REMARK   16  A    between atoms: _35  and  _36
REMARK   17  A    between atoms: _35  and  _38
REMARK   18  A    between atoms: _38  and  _39
REMARK   19  A    between atoms: _42  and  _44
REMARK   20  A    between atoms: _44  and  _45
REMARK   21  A    between atoms: _44  and  _47
REMARK   22  A    between atoms: _47  and  _48
REMARK   23  A    between atoms: _50  and  _52
REMARK   24  A    between atoms: _52  and  _53
REMARK   25  A    between atoms: _52  and  _55
REMARK   26  A    between atoms: _55  and  _56
REMARK   27  A    between atoms: _61  and  _63
REMARK   28  A    between atoms: _63  and  _64
REMARK   29  A    between atoms: _66  and  _68
REMARK   30  A    between atoms: _68  and  _69
REMARK   31  A    between atoms: _68  and  _71
REMARK   32  A    between atoms: _71  and  _72
REMARK   33  A    between atoms: _75  and  _77
REMARK   34  A    between atoms: _77  and  _78
REMARK   35  A    between atoms: _77  and  _80
REMARK   36  A    between atoms: _80  and  _81
REMARK   37  A    between atoms: _81  and  _82
REMARK   38  A    between atoms: _82  and  _83
REMARK   39  A    between atoms: _92  and  _94
REMARK   40  A    between atoms: _94  and  _95
REMARK   41  A    between atoms: _94  and  _97
REMARK   42  A    between atoms: _97  and  _98
REMARK   43  A    between atoms: _98  and  _99
REMARK   44  A    between atoms: _102  and  _104
REMARK   45  A    between atoms: _104  and  _105
REMARK   46  A    between atoms: _104  and  _107
REMARK   47  A    between atoms: _107  and  _108
REMARK   48  A    between atoms: _113  and  _115
REMARK   49  A    between atoms: _115  and  _116
REMARK   50  A    between atoms: _115  and  _118
REMARK   51  A    between atoms: _118  and  _119
REMARK   52  A    between atoms: _122  and  _124
REMARK   53  A    between atoms: _124  and  _125
REMARK   54  A    between atoms: _124  and  _127
REMARK   55  A    between atoms: _127  and  _128
REMARK   56  A    between atoms: _134  and  _136
REMARK   57  A    between atoms: _136  and  _137
REMARK   58  A    between atoms: _136  and  _139
REMARK   59  A    between atoms: _139  and  _140
REMARK   60  A    between atoms: _145  and  _147
REMARK   61  A    between atoms: _147  and  _148
REMARK   62  A    between atoms: _147  and  _150
REMARK   63  A    between atoms: _150  and  _151
REMARK   64  A    between atoms: _157  and  _159
REMARK   65  A    between atoms: _159  and  _160
REMARK   66  A    between atoms: _159  and  _162
REMARK   67  A    between atoms: _165  and  _167
REMARK   68  A    between atoms: _167  and  _168
REMARK   69  A    between atoms: _167  and  _170
REMARK   70  A    between atoms: _170  and  _171
REMARK   71  A    between atoms: _176  and  _177
REMARK   72  A    between atoms: _179  and  _181
REMARK   73  A    between atoms: _181  and  _182
REMARK   74  A    between atoms: _181  and  _184
REMARK   75  A    between atoms: _184  and  _185
REMARK   76  A    between atoms: _188  and  _190
REMARK   77  A    between atoms: _190  and  _191
REMARK   78  A    between atoms: _190  and  _193
REMARK   79  A    between atoms: _193  and  _194
REMARK   80  A    between atoms: _197  and  _199
REMARK   81  A    between atoms: _199  and  _200
REMARK   82  A    between atoms: _199  and  _202
REMARK   83  A    between atoms: _202  and  _203
REMARK   84  A    between atoms: _208  and  _210
REMARK   85  A    between atoms: _210  and  _211
REMARK   86  A    between atoms: _210  and  _213
REMARK   87  A    between atoms: _213  and  _214
REMARK   88  A    between atoms: _220  and  _221
REMARK   89  A    between atoms: _226  and  _228
REMARK   90  A    between atoms: _228  and  _229
REMARK   91  A    between atoms: _231  and  _233
REMARK   92  A    between atoms: _233  and  _234
REMARK   93  A    between atoms: _238  and  _239
REMARK   94  A    between atoms: _244  and  _246
REMARK   95  A    between atoms: _246  and  _247
REMARK   96  A    between atoms: _249  and  _251
REMARK   97  A    between atoms: _251  and  _252
REMARK   98  A    between atoms: _251  and  _254
REMARK   99  A    between atoms: _254  and  _255
REMARK  100  A    between atoms: _255  and  _256
REMARK  101  A    between atoms: _258  and  _260
REMARK  102  A    between atoms: _260  and  _261
REMARK  103  A    between atoms: _260  and  _263
REMARK  104  A    between atoms: _263  and  _264
REMARK  105  A    between atoms: _266  and  _268
REMARK  106  A    between atoms: _268  and  _269
REMARK  107  A    between atoms: _268  and  _271
REMARK  108  A    between atoms: _271  and  _272
REMARK  109  A    between atoms: _277  and  _279
REMARK  110  A    between atoms: _279  and  _280
REMARK  111  A    between atoms: _282  and  _284
REMARK  112  A    between atoms: _284  and  _285
REMARK  113  A    between atoms: _284  and  _287
REMARK  114  A    between atoms: _287  and  _288
REMARK  115  A    between atoms: _293  and  _295
REMARK  116  A    between atoms: _295  and  _296
REMARK  117  A    between atoms: _299  and  _301
REMARK  118  A    between atoms: _301  and  _302
REMARK  119  A    between atoms: _301  and  _304
REMARK  120  A    between atoms: _304  and  _305
REMARK  121  A    between atoms: _310  and  _312
REMARK  122  A    between atoms: _312  and  _313
REMARK  123  A    between atoms: _312  and  _315
REMARK  124  A    between atoms: _315  and  _316
REMARK  125  A    between atoms: _319  and  _321
REMARK  126  A    between atoms: _321  and  _322
REMARK  127  A    between atoms: _325  and  _326
REMARK  128  A    between atoms: _331  and  _333
REMARK  129  A    between atoms: _333  and  _334
REMARK  130  A    between atoms: _333  and  _336
REMARK  131  A    between atoms: _336  and  _337
REMARK  132  A    between atoms: _340  and  _342
REMARK  133  A    between atoms: _342  and  _343
REMARK  134  A    between atoms: _345  and  _347
REMARK  135  A    between atoms: _347  and  _348
REMARK  136  A    between atoms: _347  and  _350
REMARK  137  A    between atoms: _350  and  _351
REMARK  138  A    between atoms: _351  and  _352
REMARK  139  A    between atoms: _357  and  _359
REMARK  140  A    between atoms: _359  and  _360
REMARK  141  A    between atoms: _359  and  _362
REMARK  142  A    between atoms: _362  and  _363
REMARK  143  A    between atoms: _366  and  _368
REMARK  144  A    between atoms: _368  and  _369
REMARK  145  A    between atoms: _371  and  _373
REMARK  146  A    between atoms: _373  and  _374
REMARK  147  A    between atoms: _373  and  _376
REMARK  148  A    between atoms: _376  and  _377
REMARK  149  A    between atoms: _380  and  _382
REMARK  150  A    between atoms: _382  and  _383
REMARK  151  A    between atoms: _385  and  _387
REMARK  152  A    between atoms: _387  and  _388
REMARK  153  A    between atoms: _387  and  _390
REMARK  154  A    between atoms: _392  and  _394
REMARK  155  A    between atoms: _394  and  _395
REMARK  156  A    between atoms: _394  and  _397
REMARK  157  A    between atoms: _397  and  _398
REMARK  158  A    between atoms: _401  and  _403
REMARK  159  A    between atoms: _403  and  _404
REMARK  160  A    between atoms: _403  and  _406
REMARK  161  A    between atoms: _406  and  _407
REMARK  162  A    between atoms: _407  and  _408
REMARK  163  A    between atoms: _413  and  _415
REMARK  164  A    between atoms: _415  and  _416
REMARK  165  A    between atoms: _415  and  _418
REMARK  166  A    between atoms: _418  and  _419
REMARK  167  A    between atoms: _419  and  _420
REMARK  168  A    between atoms: _423  and  _425
REMARK  169  A    between atoms: _425  and  _426
REMARK  170  A    between atoms: _425  and  _428
REMARK  171  A    between atoms: _428  and  _429
REMARK  172  A    between atoms: _432  and  _434
REMARK  173  A    between atoms: _434  and  _435
REMARK  174  A    between atoms: _434  and  _437
REMARK  175  A    between atoms: _437  and  _438
REMARK  176  A    between atoms: _443  and  _444
REMARK  177  A    between atoms: _446  and  _448
REMARK  178  A    between atoms: _448  and  _449
REMARK  179  A    between atoms: _448  and  _451
REMARK  180  A    between atoms: _451  and  _452
REMARK  181  A    between atoms: _455  and  _457
REMARK  182  A    between atoms: _457  and  _458
REMARK  183  A    between atoms: _457  and  _460
REMARK  184  A    between atoms: _460  and  _461
REMARK  185  A    between atoms: _464  and  _466
REMARK  186  A    between atoms: _470  and  _472
REMARK  187  A    between atoms: _477  and  _480
REMARK  188  A    between atoms: _480  and  _481
REMARK  189  A    between atoms: _481  and  _482
REMARK  190  A    between atoms: _482  and  _483
REMARK  191  A    between atoms: _483  and  _484
REMARK  192  A    between atoms: _490  and  _493
REMARK  193  A    between atoms: _491  and  _497
REMARK  194  A    between atoms: _493  and  _494
REMARK  195  A    between atoms: _497  and  _499
REMARK  196  A    between atoms: _499  and  _500
REMARK  197  A    between atoms: _499  and  _502
REMARK  198  A    between atoms: _502  and  _503
REMARK  199  A    between atoms: _506  and  _508
REMARK  200  A    between atoms: _508  and  _509
REMARK  201  A    between atoms: _508  and  _511
REMARK  202  A    between atoms: _511  and  _512
REMARK  203  A    between atoms: _515  and  _517
REMARK  204  A    between atoms: _517  and  _518
REMARK  205  A    between atoms: _517  and  _520
REMARK  206  A    between atoms: _520  and  _521
REMARK  207  A    between atoms: _524  and  _526
REMARK  208  A    between atoms: _526  and  _527
REMARK  209  A    between atoms: _529  and  _531
REMARK  210  A    between atoms: _531  and  _532
REMARK  211  A    between atoms: _531  and  _534
REMARK  212  A    between atoms: _534  and  _535
REMARK  213  A    between atoms: _538  and  _540
REMARK  214  A    between atoms: _540  and  _541
REMARK  215  A    between atoms: _540  and  _543
REMARK  216  A    between atoms: _543  and  _544
REMARK  217  A    between atoms: _550  and  _552
REMARK  218  A    between atoms: _552  and  _553
REMARK  219  A    between atoms: _552  and  _555
REMARK  220  A    between atoms: _555  and  _556
REMARK  221  A    between atoms: _559  and  _561
REMARK  222  A    between atoms: _561  and  _562
REMARK  223  A    between atoms: _561  and  _564
REMARK  224  A    between atoms: _564  and  _565
REMARK  225  A    between atoms: _568  and  _570
REMARK  226  A    between atoms: _570  and  _571
REMARK  227  A    between atoms: _573  and  _575
REMARK  228  A    between atoms: _575  and  _576
REMARK  229  A    between atoms: _575  and  _578
REMARK  230  A    between atoms: _578  and  _579
REMARK  231  A    between atoms: _581  and  _583
REMARK  232  A    between atoms: _583  and  _584
REMARK  233  A    between atoms: _583  and  _586
REMARK  234  A    between atoms: _586  and  _587
REMARK  235  A    between atoms: _592  and  _594
REMARK  236  A    between atoms: _594  and  _595
REMARK  237  A    between atoms: _594  and  _597
REMARK  238  A    between atoms: _600  and  _602
REMARK  239  A    between atoms: _602  and  _603
REMARK  240  A    between atoms: _602  and  _605
REMARK  241  A    between atoms: _605  and  _606
REMARK  242  A    between atoms: _611  and  _613
REMARK  243  A    between atoms: _613  and  _614
REMARK  244  A    between atoms: _616  and  _618
REMARK  245  A    between atoms: _618  and  _619
REMARK  246  A    between atoms: _618  and  _621
REMARK  247  A    between atoms: _621  and  _622
REMARK  248  A    between atoms: _627  and  _629
REMARK  249  A    between atoms: _629  and  _630
REMARK                            x       y       z     vdW  Elec       q    Type
REMARK                         _______ _______ _______ _____ _____    ______ ____
ROOT
ATOM      1  CB  PHE A   1      21.846  67.680  14.667  0.00  0.00    +0.000 C 
ENDROOT
BRANCH   1   2
ATOM      2  CG  PHE A   1      20.749  68.539  14.017  0.00  0.00    +0.000 A 
ATOM      3  CD2 PHE A   1      19.455  68.084  13.864  0.00  0.00    +0.000 A 
ATOM      4  CE2 PHE A   1      18.470  68.919  13.339  0.00  0.00    +0.000 A 
ATOM      5  CZ  PHE A   1      18.739  70.211  12.952  0.00  0.00    +0.000 A 
ATOM      6  CE1 PHE A   1      20.031  70.649  13.104  0.00  0.00    +0.000 A 
ATOM      7  CD1 PHE A   1      21.025  69.831  13.626  0.00  0.00    +0.000 A 
ENDBRANCH   1   2
BRANCH   1   8
ATOM      8  CA  PHE A   1      22.301  66.363  13.989  0.00  0.00    +0.000 C 
BRANCH   8   9
ATOM      9  N   PHE A   1      23.383  65.715  14.727  0.00  0.00    +0.000 NA
ATOM     10  H   PHE A   1      24.369  65.938  14.481  0.00  0.00    +0.000 HD
ENDBRANCH   8   9
BRANCH   8  11
ATOM     11  C   PHE A   1      22.926  66.666  12.653  0.00  0.00    +0.000 C 
ATOM     12  O   PHE A   1      23.732  67.585  12.533  0.00  0.00    +0.000 OA
ENDBRANCH   8  11
ENDBRANCH   1   8
TORSDOF 4
REMARK  Name = ../refined-set-2016/1tkb/1tkb_pocket.pdb
REMARK  249 active torsions:
REMARK  status: ('A' for Active; 'I' for Inactive)
REMARK    1  A    between atoms: _1  and  _3
REMARK    2  A    between atoms: _3  and  _4
REMARK    3  A    between atoms: _3  and  _6
REMARK    4  A    between atoms: _6  and  _7
REMARK    5  A    between atoms: _9  and  _11
REMARK    6  A    between atoms: _11  and  _12
REMARK    7  A    between atoms: _15  and  _17
REMARK    8  A    between atoms: _17  and  _18
REMARK    9  A    between atoms: _17  and  _20
REMARK   10  A    between atoms: _20  and  _21
REMARK   11  A    between atoms: _24  and  _26
REMARK   12  A    between atoms: _26  and  _27
REMARK   13  A    between atoms: _26  and  _29
REMARK   14  A    between atoms: _29  and  _30
REMARK   15  A    between atoms: _33  and  _35
REMARK   16  A    between atoms: _35  and  _36
REMARK   17  A    between atoms: _35  and  _38
REMARK   18  A    between atoms: _38  and  _39
REMARK   19  A    between atoms: _42  and  _44
REMARK   20  A    between atoms: _44  and  _45
REMARK   21  A    between atoms: _44  and  _47
REMARK   22  A    between atoms: _47  and  _48
REMARK   23  A    between atoms: _50  and  _52
REMARK   24  A    between atoms: _52  and  _53
REMARK   25  A    between atoms: _52  and  _55
REMARK   26  A    between atoms: _55  and  _56
REMARK   27  A    between atoms: _61  and  _63
REMARK   28  A    between atoms: _63  and  _64
REMARK   29  A    between atoms: _66  and  _68
REMARK   30  A    between atoms: _68  and  _69
REMARK   31  A    between atoms: _68  and  _71
REMARK   32  A    between atoms: _71  and  _72
REMARK   33  A    between atoms: _75  and  _77
REMARK   34  A    between atoms: _77  and  _78
REMARK   35  A    between atoms: _77  and  _80
REMARK   36  A    between atoms: _80  and  _81
REMARK   37  A    between atoms: _81  and  _82
REMARK   38  A    between atoms: _82  and  _83
REMARK   39  A    between atoms: _92  and  _94
REMARK   40  A    between atoms: _94  and  _95
REMARK   41  A    between atoms: _94  and  _97
REMARK   42  A    between atoms: _97  and  _98
REMARK   43  A    between atoms: _98  and  _99
REMARK   44  A    between atoms: _102  and  _104
REMARK   45  A    between atoms: _104  and  _105
REMARK   46  A    between atoms: _104  and  _107
REMARK   47  A    between atoms: _107  and  _108
REMARK   48  A    between atoms: _113  and  _115
REMARK   49  A    between atoms: _115  and  _116
REMARK   50  A    between atoms: _115  and  _118
REMARK   51  A    between atoms: _118  and  _119
REMARK   52  A    between atoms: _122  and  _124
REMARK   53  A    between atoms: _124  and  _125
REMARK   54  A    between atoms: _124  and  _127
REMARK   55  A    between atoms: _127  and  _128
REMARK   56  A    between atoms: _134  and  _136
REMARK   57  A    between atoms: _136  and  _137
REMARK   58  A    between atoms: _136  and  _139
REMARK   59  A    between atoms: _139  and  _140
REMARK   60  A    between atoms: _145  and  _147
REMARK   61  A    between atoms: _147  and  _148
REMARK   62  A    between atoms: _147  and  _150
REMARK   63  A    between atoms: _150  and  _151
REMARK   64  A    between atoms: _157  and  _159
REMARK   65  A    between atoms: _159  and  _160
REMARK   66  A    between atoms: _159  and  _162
REMARK   67  A    between atoms: _165  and  _167
REMARK   68  A    between atoms: _167  and  _168
REMARK   69  A    between atoms: _167  and  _170
REMARK   70  A    between atoms: _170  and  _171
REMARK   71  A    between atoms: _176  and  _177
REMARK   72  A    between atoms: _179  and  _181
REMARK   73  A    between atoms: _181  and  _182
REMARK   74  A    between atoms: _181  and  _184
REMARK   75  A    between atoms: _184  and  _185
REMARK   76  A    between atoms: _188  and  _190
REMARK   77  A    between atoms: _190  and  _191
REMARK   78  A    between atoms: _190  and  _193
REMARK   79  A    between atoms: _193  and  _194
REMARK   80  A    between atoms: _197  and  _199
REMARK   81  A    between atoms: _199  and  _200
REMARK   82  A    between atoms: _199  and  _202
REMARK   83  A    between atoms: _202  and  _203
REMARK   84  A    between atoms: _208  and  _210
REMARK   85  A    between atoms: _210  and  _211
REMARK   86  A    between atoms: _210  and  _213
REMARK   87  A    between atoms: _213  and  _214
REMARK   88  A    between atoms: _220  and  _221
REMARK   89  A    between atoms: _226  and  _228
REMARK   90  A    between atoms: _228  and  _229
REMARK   91  A    between atoms: _231  and  _233
REMARK   92  A    between atoms: _233  and  _234
REMARK   93  A    between atoms: _238  and  _239
REMARK   94  A    between atoms: _244  and  _246
REMARK   95  A    between atoms: _246  and  _247
REMARK   96  A    between atoms: _249  and  _251
REMARK   97  A    between atoms: _251  and  _252
REMARK   98  A    between atoms: _251  and  _254
REMARK   99  A    between atoms: _254  and  _255
REMARK  100  A    between atoms: _255  and  _256
REMARK  101  A    between atoms: _258  and  _260
REMARK  102  A    between atoms: _260  and  _261
REMARK  103  A    between atoms: _260  and  _263
REMARK  104  A    between atoms: _263  and  _264
REMARK  105  A    between atoms: _266  and  _268
REMARK  106  A    between atoms: _268  and  _269
REMARK  107  A    between atoms: _268  and  _271
REMARK  108  A    between atoms: _271  and  _272
REMARK  109  A    between atoms: _277  and  _279
REMARK  110  A    between atoms: _279  and  _280
REMARK  111  A    between atoms: _282  and  _284
REMARK  112  A    between atoms: _284  and  _285
REMARK  113  A    between atoms: _284  and  _287
REMARK  114  A    between atoms: _287  and  _288
REMARK  115  A    between atoms: _293  and  _295
REMARK  116  A    between atoms: _295  and  _296
REMARK  117  A    between atoms: _299  and  _301
REMARK  118  A    between atoms: _301  and  _302
REMARK  119  A    between atoms: _301  and  _304
REMARK  120  A    between atoms: _304  and  _305
REMARK  121  A    between atoms: _310  and  _312
REMARK  122  A    between atoms: _312  and  _313
REMARK  123  A    between atoms: _312  and  _315
REMARK  124  A    between atoms: _315  and  _316
REMARK  125  A    between atoms: _319  and  _321
REMARK  126  A    between atoms: _321  and  _322
REMARK  127  A    between atoms: _325  and  _326
REMARK  128  A    between atoms: _331  and  _333
REMARK  129  A    between atoms: _333  and  _334
REMARK  130  A    between atoms: _333  and  _336
REMARK  131  A    between atoms: _336  and  _337
REMARK  132  A    between atoms: _340  and  _342
REMARK  133  A    between atoms: _342  and  _343
REMARK  134  A    between atoms: _345  and  _347
REMARK  135  A    between atoms: _347  and  _348
REMARK  136  A    between atoms: _347  and  _350
REMARK  137  A    between atoms: _350  and  _351
REMARK  138  A    between atoms: _351  and  _352
REMARK  139  A    between atoms: _357  and  _359
REMARK  140  A    between atoms: _359  and  _360
REMARK  141  A    between atoms: _359  and  _362
REMARK  142  A    between atoms: _362  and  _363
REMARK  143  A    between atoms: _366  and  _368
REMARK  144  A    between atoms: _368  and  _369
REMARK  145  A    between atoms: _371  and  _373
REMARK  146  A    between atoms: _373  and  _374
REMARK  147  A    between atoms: _373  and  _376
REMARK  148  A    between atoms: _376  and  _377
REMARK  149  A    between atoms: _380  and  _382
REMARK  150  A    between atoms: _382  and  _383
REMARK  151  A    between atoms: _385  and  _387
REMARK  152  A    between atoms: _387  and  _388
REMARK  153  A    between atoms: _387  and  _390
REMARK  154  A    between atoms: _392  and  _394
REMARK  155  A    between atoms: _394  and  _395
REMARK  156  A    between atoms: _394  and  _397
REMARK  157  A    between atoms: _397  and  _398
REMARK  158  A    between atoms: _401  and  _403
REMARK  159  A    between atoms: _403  and  _404
REMARK  160  A    between atoms: _403  and  _406
REMARK  161  A    between atoms: _406  and  _407
REMARK  162  A    between atoms: _407  and  _408
REMARK  163  A    between atoms: _413  and  _415
REMARK  164  A    between atoms: _415  and  _416
REMARK  165  A    between atoms: _415  and  _418
REMARK  166  A    between atoms: _418  and  _419
REMARK  167  A    between atoms: _419  and  _420
REMARK  168  A    between atoms: _423  and  _425
REMARK  169  A    between atoms: _425  and  _426
REMARK  170  A    between atoms: _425  and  _428
REMARK  171  A    between atoms: _428  and  _429
REMARK  172  A    between atoms: _432  and  _434
REMARK  173  A    between atoms: _434  and  _435
REMARK  174  A    between atoms: _434  and  _437
REMARK  175  A    between atoms: _437  and  _438
REMARK  176  A    between atoms: _443  and  _444
REMARK  177  A    between atoms: _446  and  _448
REMARK  178  A    between atoms: _448  and  _449
REMARK  179  A    between atoms: _448  and  _451
REMARK  180  A    between atoms: _451  and  _452
REMARK  181  A    between atoms: _455  and  _457
REMARK  182  A    between atoms: _457  and  _458
REMARK  183  A    between atoms: _457  and  _460
REMARK  184  A    between atoms: _460  and  _461
REMARK  185  A    between atoms: _464  and  _466
REMARK  186  A    between atoms: _470  and  _472
REMARK  187  A    between atoms: _477  and  _480
REMARK  188  A    between atoms: _480  and  _481
REMARK  189  A    between atoms: _481  and  _482
REMARK  190  A    between atoms: _482  and  _483
REMARK  191  A    between atoms: _483  and  _484
REMARK  192  A    between atoms: _490  and  _493
REMARK  193  A    between atoms: _491  and  _497
REMARK  194  A    between atoms: _493  and  _494
REMARK  195  A    between atoms: _497  and  _499
REMARK  196  A    between atoms: _499  and  _500
REMARK  197  A    between atoms: _499  and  _502
REMARK  198  A    between atoms: _502  and  _503
REMARK  199  A    between atoms: _506  and  _508
REMARK  200  A    between atoms: _508  and  _509
REMARK  201  A    between atoms: _508  and  _511
REMARK  202  A    between atoms: _511  and  _512
REMARK  203  A    between atoms: _515  and  _517
REMARK  204  A    between atoms: _517  and  _518
REMARK  205  A    between atoms: _517  and  _520
REMARK  206  A    between atoms: _520  and  _521
REMARK  207  A    between atoms: _524  and  _526
REMARK  208  A    between atoms: _526  and  _527
REMARK  209  A    between atoms: _529  and  _531
REMARK  210  A    between atoms: _531  and  _532
REMARK  211  A    between atoms: _531  and  _534
REMARK  212  A    between atoms: _534  and  _535
REMARK  213  A    between atoms: _538  and  _540
REMARK  214  A    between atoms: _540  and  _541
REMARK  215  A    between atoms: _540  and  _543
REMARK  216  A    between atoms: _543  and  _544
REMARK  217  A    between atoms: _550  and  _552
REMARK  218  A    between atoms: _552  and  _553
REMARK  219  A    between atoms: _552  and  _555
REMARK  220  A    between atoms: _555  and  _556
REMARK  221  A    between atoms: _559  and  _561
REMARK  222  A    between atoms: _561  and  _562
REMARK  223  A    between atoms: _561  and  _564
REMARK  224  A    between atoms: _564  and  _565
REMARK  225  A    between atoms: _568  and  _570
REMARK  226  A    between atoms: _570  and  _571
REMARK  227  A    between atoms: _573  and  _575
REMARK  228  A    between atoms: _575  and  _576
REMARK  229  A    between atoms: _575  and  _578
REMARK  230  A    between atoms: _578  and  _579
REMARK  231  A    between atoms: _581  and  _583
REMARK  232  A    between atoms: _583  and  _584
REMARK  233  A    between atoms: _583  and  _586
REMARK  234  A    between atoms: _586  and  _587
REMARK  235  A    between atoms: _592  and  _594
REMARK  236  A    between atoms: _594  and  _595
REMARK  237  A    between atoms: _594  and  _597
REMARK  238  A    between atoms: _600  and  _602
REMARK  239  A    between atoms: _602  and  _603
REMARK  240  A    between atoms: _602  and  _605
REMARK  241  A    between atoms: _605  and  _606
REMARK  242  A    between atoms: _611  and  _613
REMARK  243  A    between atoms: _613  and  _614
REMARK  244  A    between atoms: _616  and  _618
REMARK  245  A    between atoms: _618  and  _619
REMARK  246  A    between atoms: _618  and  _621
REMARK  247  A    between atoms: _621  and  _622
REMARK  248  A    between atoms: _627  and  _629
REMARK  249  A    between atoms: _629  and  _630
REMARK                            x       y       z     vdW  Elec       q    Type
REMARK                         _______ _______ _______ _____ _____    ______ ____
ROOT
ATOM      1  CA  THR A   1      26.974  82.409  11.179  0.00  0.00    +0.000 C 
ENDROOT
BRANCH   1   2
ATOM      2  N   THR A   1      26.247  81.484  10.333  0.00  0.00    +0.000 NA
ATOM      3  H   THR A   1      25.885  80.610  10.766  0.00  0.00    +0.000 HD
ENDBRANCH   1   2
BRANCH   1   4
ATOM      4  CB  THR A   1      26.015  83.185  12.179  0.00  0.00    +0.000 C 
ATOM      5  CG2 THR A   1      24.670  83.624  11.566  0.00  0.00    +0.000 C 
BRANCH   4   6
ATOM      6  OG1 THR A   1      25.703  82.293  13.248  0.00  0.00    +0.000 OA
ATOM      7  HG1 THR A   1      25.104  82.748  13.892  0.00  0.00    +0.000 HD
ENDBRANCH   4   6
ENDBRANCH   1   4
BRANCH   1   8
ATOM      8  C   THR A   1      28.030  81.662  11.988  0.00  0.00    +0.000 C 
ATOM      9  O   THR A   1      28.051  80.438  11.994  0.00  0.00    +0.000 OA
ENDBRANCH   1   8
TORSDOF 4
REMARK  Name = ../refined-set-2016/1tkb/1tkb_pocket.pdb
REMARK  249 active torsions:
REMARK  status: ('A' for Active; 'I' for Inactive)
REMARK    1  A    between atoms: _1  and  _3
REMARK    2  A    between atoms: _3  and  _4
REMARK    3  A    between atoms: _3  and  _6
REMARK    4  A    between atoms: _6  and  _7
REMARK    5  A    between atoms: _9  and  _11
REMARK    6  A    between atoms: _11  and  _12
REMARK    7  A    between atoms: _15  and  _17
REMARK    8  A    between atoms: _17  and  _18
REMARK    9  A    between atoms: _17  and  _20
REMARK   10  A    between atoms: _20  and  _21
REMARK   11  A    between atoms: _24  and  _26
REMARK   12  A    between atoms: _26  and  _27
REMARK   13  A    between atoms: _26  and  _29
REMARK   14  A    between atoms: _29  and  _30
REMARK   15  A    between atoms: _33  and  _35
REMARK   16  A    between atoms: _35  and  _36
REMARK   17  A    between atoms: _35  and  _38
REMARK   18  A    between atoms: _38  and  _39
REMARK   19  A    between atoms: _42  and  _44
REMARK   20  A    between atoms: _44  and  _45
REMARK   21  A    between atoms: _44  and  _47
REMARK   22  A    between atoms: _47  and  _48
REMARK   23  A    between atoms: _50  and  _52
REMARK   24  A    between atoms: _52  and  _53
REMARK   25  A    between atoms: _52  and  _55
REMARK   26  A    between atoms: _55  and  _56
REMARK   27  A    between atoms: _61  and  _63
REMARK   28  A    between atoms: _63  and  _64
REMARK   29  A    between atoms: _66  and  _68
REMARK   30  A    between atoms: _68  and  _69
REMARK   31  A    between atoms: _68  and  _71
REMARK   32  A    between atoms: _71  and  _72
REMARK   33  A    between atoms: _75  and  _77
REMARK   34  A    between atoms: _77  and  _78
REMARK   35  A    between atoms: _77  and  _80
REMARK   36  A    between atoms: _80  and  _81
REMARK   37  A    between atoms: _81  and  _82
REMARK   38  A    between atoms: _82  and  _83
REMARK   39  A    between atoms: _92  and  _94
REMARK   40  A    between atoms: _94  and  _95
REMARK   41  A    between atoms: _94  and  _97
REMARK   42  A    between atoms: _97  and  _98
REMARK   43  A    between atoms: _98  and  _99
REMARK   44  A    between atoms: _102  and  _104
REMARK   45  A    between atoms: _104  and  _105
REMARK   46  A    between atoms: _104  and  _107
REMARK   47  A    between atoms: _107  and  _108
REMARK   48  A    between atoms: _113  and  _115
REMARK   49  A    between atoms: _115  and  _116
REMARK   50  A    between atoms: _115  and  _118
REMARK   51  A    between atoms: _118  and  _119
REMARK   52  A    between atoms: _122  and  _124
REMARK   53  A    between atoms: _124  and  _125
REMARK   54  A    between atoms: _124  and  _127
REMARK   55  A    between atoms: _127  and  _128
REMARK   56  A    between atoms: _134  and  _136
REMARK   57  A    between atoms: _136  and  _137
REMARK   58  A    between atoms: _136  and  _139
REMARK   59  A    between atoms: _139  and  _140
REMARK   60  A    between atoms: _145  and  _147
REMARK   61  A    between atoms: _147  and  _148
REMARK   62  A    between atoms: _147  and  _150
REMARK   63  A    between atoms: _150  and  _151
REMARK   64  A    between atoms: _157  and  _159
REMARK   65  A    between atoms: _159  and  _160
REMARK   66  A    between atoms: _159  and  _162
REMARK   67  A    between atoms: _165  and  _167
REMARK   68  A    between atoms: _167  and  _168
REMARK   69  A    between atoms: _167  and  _170
REMARK   70  A    between atoms: _170  and  _171
REMARK   71  A    between atoms: _176  and  _177
REMARK   72  A    between atoms: _179  and  _181
REMARK   73  A    between atoms: _181  and  _182
REMARK   74  A    between atoms: _181  and  _184
REMARK   75  A    between atoms: _184  and  _185
REMARK   76  A    between atoms: _188  and  _190
REMARK   77  A    between atoms: _190  and  _191
REMARK   78  A    between atoms: _190  and  _193
REMARK   79  A    between atoms: _193  and  _194
REMARK   80  A    between atoms: _197  and  _199
REMARK   81  A    between atoms: _199  and  _200
REMARK   82  A    between atoms: _199  and  _202
REMARK   83  A    between atoms: _202  and  _203
REMARK   84  A    between atoms: _208  and  _210
REMARK   85  A    between atoms: _210  and  _211
REMARK   86  A    between atoms: _210  and  _213
REMARK   87  A    between atoms: _213  and  _214
REMARK   88  A    between atoms: _220  and  _221
REMARK   89  A    between atoms: _226  and  _228
REMARK   90  A    between atoms: _228  and  _229
REMARK   91  A    between atoms: _231  and  _233
REMARK   92  A    between atoms: _233  and  _234
REMARK   93  A    between atoms: _238  and  _239
REMARK   94  A    between atoms: _244  and  _246
REMARK   95  A    between atoms: _246  and  _247
REMARK   96  A    between atoms: _249  and  _251
REMARK   97  A    between atoms: _251  and  _252
REMARK   98  A    between atoms: _251  and  _254
REMARK   99  A    between atoms: _254  and  _255
REMARK  100  A    between atoms: _255  and  _256
REMARK  101  A    between atoms: _258  and  _260
REMARK  102  A    between atoms: _260  and  _261
REMARK  103  A    between atoms: _260  and  _263
REMARK  104  A    between atoms: _263  and  _264
REMARK  105  A    between atoms: _266  and  _268
REMARK  106  A    between atoms: _268  and  _269
REMARK  107  A    between atoms: _268  and  _271
REMARK  108  A    between atoms: _271  and  _272
REMARK  109  A    between atoms: _277  and  _279
REMARK  110  A    between atoms: _279  and  _280
REMARK  111  A    between atoms: _282  and  _284
REMARK  112  A    between atoms: _284  and  _285
REMARK  113  A    between atoms: _284  and  _287
REMARK  114  A    between atoms: _287  and  _288
REMARK  115  A    between atoms: _293  and  _295
REMARK  116  A    between atoms: _295  and  _296
REMARK  117  A    between atoms: _299  and  _301
REMARK  118  A    between atoms: _301  and  _302
REMARK  119  A    between atoms: _301  and  _304
REMARK  120  A    between atoms: _304  and  _305
REMARK  121  A    between atoms: _310  and  _312
REMARK  122  A    between atoms: _312  and  _313
REMARK  123  A    between atoms: _312  and  _315
REMARK  124  A    between atoms: _315  and  _316
REMARK  125  A    between atoms: _319  and  _321
REMARK  126  A    between atoms: _321  and  _322
REMARK  127  A    between atoms: _325  and  _326
REMARK  128  A    between atoms: _331  and  _333
REMARK  129  A    between atoms: _333  and  _334
REMARK  130  A    between atoms: _333  and  _336
REMARK  131  A    between atoms: _336  and  _337
REMARK  132  A    between atoms: _340  and  _342
REMARK  133  A    between atoms: _342  and  _343
REMARK  134  A    between atoms: _345  and  _347
REMARK  135  A    between atoms: _347  and  _348
REMARK  136  A    between atoms: _347  and  _350
REMARK  137  A    between atoms: _350  and  _351
REMARK  138  A    between atoms: _351  and  _352
REMARK  139  A    between atoms: _357  and  _359
REMARK  140  A    between atoms: _359  and  _360
REMARK  141  A    between atoms: _359  and  _362
REMARK  142  A    between atoms: _362  and  _363
REMARK  143  A    between atoms: _366  and  _368
REMARK  144  A    between atoms: _368  and  _369
REMARK  145  A    between atoms: _371  and  _373
REMARK  146  A    between atoms: _373  and  _374
REMARK  147  A    between atoms: _373  and  _376
REMARK  148  A    between atoms: _376  and  _377
REMARK  149  A    between atoms: _380  and  _382
REMARK  150  A    between atoms: _382  and  _383
REMARK  151  A    between atoms: _385  and  _387
REMARK  152  A    between atoms: _387  and  _388
REMARK  153  A    between atoms: _387  and  _390
REMARK  154  A    between atoms: _392  and  _394
REMARK  155  A    between atoms: _394  and  _395
REMARK  156  A    between atoms: _394  and  _397
REMARK  157  A    between atoms: _397  and  _398
REMARK  158  A    between atoms: _401  and  _403
REMARK  159  A    between atoms: _403  and  _404
REMARK  160  A    between atoms: _403  and  _406
REMARK  161  A    between atoms: _406  and  _407
REMARK  162  A    between atoms: _407  and  _408
REMARK  163  A    between atoms: _413  and  _415
REMARK  164  A    between atoms: _415  and  _416
REMARK  165  A    between atoms: _415  and  _418
REMARK  166  A    between atoms: _418  and  _419
REMARK  167  A    between atoms: _419  and  _420
REMARK  168  A    between atoms: _423  and  _425
REMARK  169  A    between atoms: _425  and  _426
REMARK  170  A    between atoms: _425  and  _428
REMARK  171  A    between atoms: _428  and  _429
REMARK  172  A    between atoms: _432  and  _434
REMARK  173  A    between atoms: _434  and  _435
REMARK  174  A    between atoms: _434  and  _437
REMARK  175  A    between atoms: _437  and  _438
REMARK  176  A    between atoms: _443  and  _444
REMARK  177  A    between atoms: _446  and  _448
REMARK  178  A    between atoms: _448  and  _449
REMARK  179  A    between atoms: _448  and  _451
REMARK  180  A    between atoms: _451  and  _452
REMARK  181  A    between atoms: _455  and  _457
REMARK  182  A    between atoms: _457  and  _458
REMARK  183  A    between atoms: _457  and  _460
REMARK  184  A    between atoms: _460  and  _461
REMARK  185  A    between atoms: _464  and  _466
REMARK  186  A    between atoms: _470  and  _472
REMARK  187  A    between atoms: _477  and  _480
REMARK  188  A    between atoms: _480  and  _481
REMARK  189  A    between atoms: _481  and  _482
REMARK  190  A    between atoms: _482  and  _483
REMARK  191  A    between atoms: _483  and  _484
REMARK  192  A    between atoms: _490  and  _493
REMARK  193  A    between atoms: _491  and  _497
REMARK  194  A    between atoms: _493  and  _494
REMARK  195  A    between atoms: _497  and  _499
REMARK  196  A    between atoms: _499  and  _500
REMARK  197  A    between atoms: _499  and  _502
REMARK  198  A    between atoms: _502  and  _503
REMARK  199  A    between atoms: _506  and  _508
REMARK  200  A    between atoms: _508  and  _509
REMARK  201  A    between atoms: _508  and  _511
REMARK  202  A    between atoms: _511  and  _512
REMARK  203  A    between atoms: _515  and  _517
REMARK  204  A    between atoms: _517  and  _518
REMARK  205  A    between atoms: _517  and  _520
REMARK  206  A    between atoms: _520  and  _521
REMARK  207  A    between atoms: _524  and  _526
REMARK  208  A    between atoms: _526  and  _527
REMARK  209  A    between atoms: _529  and  _531
REMARK  210  A    between atoms: _531  and  _532
REMARK  211  A    between atoms: _531  and  _534
REMARK  212  A    between atoms: _534  and  _535
REMARK  213  A    between atoms: _538  and  _540
REMARK  214  A    between atoms: _540  and  _541
REMARK  215  A    between atoms: _540  and  _543
REMARK  216  A    between atoms: _543  and  _544
REMARK  217  A    between atoms: _550  and  _552
REMARK  218  A    between atoms: _552  and  _553
REMARK  219  A    between atoms: _552  and  _555
REMARK  220  A    between atoms: _555  and  _556
REMARK  221  A    between atoms: _559  and  _561
REMARK  222  A    between atoms: _561  and  _562
REMARK  223  A    between atoms: _561  and  _564
REMARK  224  A    between atoms: _564  and  _565
REMARK  225  A    between atoms: _568  and  _570
REMARK  226  A    between atoms: _570  and  _571
REMARK  227  A    between atoms: _573  and  _575
REMARK  228  A    between atoms: _575  and  _576
REMARK  229  A    between atoms: _575  and  _578
REMARK  230  A    between atoms: _578  and  _579
REMARK  231  A    between atoms: _581  and  _583
REMARK  232  A    between atoms: _583  and  _584
REMARK  233  A    between atoms: _583  and  _586
REMARK  234  A    between atoms: _586  and  _587
REMARK  235  A    between atoms: _592  and  _594
REMARK  236  A    between atoms: _594  and  _595
REMARK  237  A    between atoms: _594  and  _597
REMARK  238  A    between atoms: _600  and  _602
REMARK  239  A    between atoms: _602  and  _603
REMARK  240  A    between atoms: _602  and  _605
REMARK  241  A    between atoms: _605  and  _606
REMARK  242  A    between atoms: _611  and  _613
REMARK  243  A    between atoms: _613  and  _614
REMARK  244  A    between atoms: _616  and  _618
REMARK  245  A    between atoms: _618  and  _619
REMARK  246  A    between atoms: _618  and  _621
REMARK  247  A    between atoms: _621  and  _622
REMARK  248  A    between atoms: _627  and  _629
REMARK  249  A    between atoms: _629  and  _630
REMARK                            x       y       z     vdW  Elec       q    Type
REMARK                         _______ _______ _______ _____ _____    ______ ____
ROOT
ATOM      1  CA  ILE A   1      28.522  81.593  17.235  0.00  0.00    +0.000 C 
ENDROOT
BRANCH   1   2
ATOM      2  C   ILE A   1      29.620  82.438  17.866  0.00  0.00    +0.000 C 
ATOM      3  N   GLY A   2      29.258  83.574  18.443  0.00  0.00    +0.000 N 
ATOM      4  H   GLY A   2      28.267  83.888  18.398  0.00  0.00    +0.000 HD
ATOM      5  O   ILE A   1      30.808  82.112  17.741  0.00  0.00    +0.000 OA
BRANCH   3   6
ATOM      6  CA  GLY A   2      30.235  84.374  19.132  0.00  0.00    +0.000 C 
BRANCH   6   7
ATOM      7  C   GLY A   2      31.200  85.104  18.227  0.00  0.00    +0.000 C 
ATOM      8  O   GLY A   2      32.341  85.333  18.613  0.00  0.00    +0.000 OA
ENDBRANCH   6   7
ENDBRANCH   3   6
ENDBRANCH   1   2
BRANCH   1   9
ATOM      9  N   ILE A   1      28.997  81.257  15.880  0.00  0.00    +0.000 NA
ATOM     10  H   ILE A   1      29.120  80.254  15.633  0.00  0.00    +0.000 HD
ENDBRANCH   1   9
BRANCH   1  11
ATOM     11  CB  ILE A   1      28.267  80.268  18.071  0.00  0.00    +0.000 C 
ATOM     12  CG2 ILE A   1      29.562  79.531  18.435  0.00  0.00    +0.000 C 
BRANCH  11  13
ATOM     13  CG1 ILE A   1      27.582  80.613  19.381  0.00  0.00    +0.000 C 
ATOM     14  CD1 ILE A   1      27.150  79.382  20.207  0.00  0.00    +0.000 C 
ENDBRANCH  11  13
ENDBRANCH   1  11
TORSDOF 6
REMARK  Name = ../refined-set-2016/1tkb/1tkb_pocket.pdb
REMARK  249 active torsions:
REMARK  status: ('A' for Active; 'I' for Inactive)
REMARK    1  A    between atoms: _1  and  _3
REMARK    2  A    between atoms: _3  and  _4
REMARK    3  A    between atoms: _3  and  _6
REMARK    4  A    between atoms: _6  and  _7
REMARK    5  A    between atoms: _9  and  _11
REMARK    6  A    between atoms: _11  and  _12
REMARK    7  A    between atoms: _15  and  _17
REMARK    8  A    between atoms: _17  and  _18
REMARK    9  A    between atoms: _17  and  _20
REMARK   10  A    between atoms: _20  and  _21
REMARK   11  A    between atoms: _24  and  _26
REMARK   12  A    between atoms: _26  and  _27
REMARK   13  A    between atoms: _26  and  _29
REMARK   14  A    between atoms: _29  and  _30
REMARK   15  A    between atoms: _33  and  _35
REMARK   16  A    between atoms: _35  and  _36
REMARK   17  A    between atoms: _35  and  _38
REMARK   18  A    between atoms: _38  and  _39
REMARK   19  A    between atoms: _42  and  _44
REMARK   20  A    between atoms: _44  and  _45
REMARK   21  A    between atoms: _44  and  _47
REMARK   22  A    between atoms: _47  and  _48
REMARK   23  A    between atoms: _50  and  _52
REMARK   24  A    between atoms: _52  and  _53
REMARK   25  A    between atoms: _52  and  _55
REMARK   26  A    between atoms: _55  and  _56
REMARK   27  A    between atoms: _61  and  _63
REMARK   28  A    between atoms: _63  and  _64
REMARK   29  A    between atoms: _66  and  _68
REMARK   30  A    between atoms: _68  and  _69
REMARK   31  A    between atoms: _68  and  _71
REMARK   32  A    between atoms: _71  and  _72
REMARK   33  A    between atoms: _75  and  _77
REMARK   34  A    between atoms: _77  and  _78
REMARK   35  A    between atoms: _77  and  _80
REMARK   36  A    between atoms: _80  and  _81
REMARK   37  A    between atoms: _81  and  _82
REMARK   38  A    between atoms: _82  and  _83
REMARK   39  A    between atoms: _92  and  _94
REMARK   40  A    between atoms: _94  and  _95
REMARK   41  A    between atoms: _94  and  _97
REMARK   42  A    between atoms: _97  and  _98
REMARK   43  A    between atoms: _98  and  _99
REMARK   44  A    between atoms: _102  and  _104
REMARK   45  A    between atoms: _104  and  _105
REMARK   46  A    between atoms: _104  and  _107
REMARK   47  A    between atoms: _107  and  _108
REMARK   48  A    between atoms: _113  and  _115
REMARK   49  A    between atoms: _115  and  _116
REMARK   50  A    between atoms: _115  and  _118
REMARK   51  A    between atoms: _118  and  _119
REMARK   52  A    between atoms: _122  and  _124
REMARK   53  A    between atoms: _124  and  _125
REMARK   54  A    between atoms: _124  and  _127
REMARK   55  A    between atoms: _127  and  _128
REMARK   56  A    between atoms: _134  and  _136
REMARK   57  A    between atoms: _136  and  _137
REMARK   58  A    between atoms: _136  and  _139
REMARK   59  A    between atoms: _139  and  _140
REMARK   60  A    between atoms: _145  and  _147
REMARK   61  A    between atoms: _147  and  _148
REMARK   62  A    between atoms: _147  and  _150
REMARK   63  A    between atoms: _150  and  _151
REMARK   64  A    between atoms: _157  and  _159
REMARK   65  A    between atoms: _159  and  _160
REMARK   66  A    between atoms: _159  and  _162
REMARK   67  A    between atoms: _165  and  _167
REMARK   68  A    between atoms: _167  and  _168
REMARK   69  A    between atoms: _167  and  _170
REMARK   70  A    between atoms: _170  and  _171
REMARK   71  A    between atoms: _176  and  _177
REMARK   72  A    between atoms: _179  and  _181
REMARK   73  A    between atoms: _181  and  _182
REMARK   74  A    between atoms: _181  and  _184
REMARK   75  A    between atoms: _184  and  _185
REMARK   76  A    between atoms: _188  and  _190
REMARK   77  A    between atoms: _190  and  _191
REMARK   78  A    between atoms: _190  and  _193
REMARK   79  A    between atoms: _193  and  _194
REMARK   80  A    between atoms: _197  and  _199
REMARK   81  A    between atoms: _199  and  _200
REMARK   82  A    between atoms: _199  and  _202
REMARK   83  A    between atoms: _202  and  _203
REMARK   84  A    between atoms: _208  and  _210
REMARK   85  A    between atoms: _210  and  _211
REMARK   86  A    between atoms: _210  and  _213
REMARK   87  A    between atoms: _213  and  _214
REMARK   88  A    between atoms: _220  and  _221
REMARK   89  A    between atoms: _226  and  _228
REMARK   90  A    between atoms: _228  and  _229
REMARK   91  A    between atoms: _231  and  _233
REMARK   92  A    between atoms: _233  and  _234
REMARK   93  A    between atoms: _238  and  _239
REMARK   94  A    between atoms: _244  and  _246
REMARK   95  A    between atoms: _246  and  _247
REMARK   96  A    between atoms: _249  and  _251
REMARK   97  A    between atoms: _251  and  _252
REMARK   98  A    between atoms: _251  and  _254
REMARK   99  A    between atoms: _254  and  _255
REMARK  100  A    between atoms: _255  and  _256
REMARK  101  A    between atoms: _258  and  _260
REMARK  102  A    between atoms: _260  and  _261
REMARK  103  A    between atoms: _260  and  _263
REMARK  104  A    between atoms: _263  and  _264
REMARK  105  A    between atoms: _266  and  _268
REMARK  106  A    between atoms: _268  and  _269
REMARK  107  A    between atoms: _268  and  _271
REMARK  108  A    between atoms: _271  and  _272
REMARK  109  A    between atoms: _277  and  _279
REMARK  110  A    between atoms: _279  and  _280
REMARK  111  A    between atoms: _282  and  _284
REMARK  112  A    between atoms: _284  and  _285
REMARK  113  A    between atoms: _284  and  _287
REMARK  114  A    between atoms: _287  and  _288
REMARK  115  A    between atoms: _293  and  _295
REMARK  116  A    between atoms: _295  and  _296
REMARK  117  A    between atoms: _299  and  _301
REMARK  118  A    between atoms: _301  and  _302
REMARK  119  A    between atoms: _301  and  _304
REMARK  120  A    between atoms: _304  and  _305
REMARK  121  A    between atoms: _310  and  _312
REMARK  122  A    between atoms: _312  and  _313
REMARK  123  A    between atoms: _312  and  _315
REMARK  124  A    between atoms: _315  and  _316
REMARK  125  A    between atoms: _319  and  _321
REMARK  126  A    between atoms: _321  and  _322
REMARK  127  A    between atoms: _325  and  _326
REMARK  128  A    between atoms: _331  and  _333
REMARK  129  A    between atoms: _333  and  _334
REMARK  130  A    between atoms: _333  and  _336
REMARK  131  A    between atoms: _336  and  _337
REMARK  132  A    between atoms: _340  and  _342
REMARK  133  A    between atoms: _342  and  _343
REMARK  134  A    between atoms: _345  and  _347
REMARK  135  A    between atoms: _347  and  _348
REMARK  136  A    between atoms: _347  and  _350
REMARK  137  A    between atoms: _350  and  _351
REMARK  138  A    between atoms: _351  and  _352
REMARK  139  A    between atoms: _357  and  _359
REMARK  140  A    between atoms: _359  and  _360
REMARK  141  A    between atoms: _359  and  _362
REMARK  142  A    between atoms: _362  and  _363
REMARK  143  A    between atoms: _366  and  _368
REMARK  144  A    between atoms: _368  and  _369
REMARK  145  A    between atoms: _371  and  _373
REMARK  146  A    between atoms: _373  and  _374
REMARK  147  A    between atoms: _373  and  _376
REMARK  148  A    between atoms: _376  and  _377
REMARK  149  A    between atoms: _380  and  _382
REMARK  150  A    between atoms: _382  and  _383
REMARK  151  A    between atoms: _385  and  _387
REMARK  152  A    between atoms: _387  and  _388
REMARK  153  A    between atoms: _387  and  _390
REMARK  154  A    between atoms: _392  and  _394
REMARK  155  A    between atoms: _394  and  _395
REMARK  156  A    between atoms: _394  and  _397
REMARK  157  A    between atoms: _397  and  _398
REMARK  158  A    between atoms: _401  and  _403
REMARK  159  A    between atoms: _403  and  _404
REMARK  160  A    between atoms: _403  and  _406
REMARK  161  A    between atoms: _406  and  _407
REMARK  162  A    between atoms: _407  and  _408
REMARK  163  A    between atoms: _413  and  _415
REMARK  164  A    between atoms: _415  and  _416
REMARK  165  A    between atoms: _415  and  _418
REMARK  166  A    between atoms: _418  and  _419
REMARK  167  A    between atoms: _419  and  _420
REMARK  168  A    between atoms: _423  and  _425
REMARK  169  A    between atoms: _425  and  _426
REMARK  170  A    between atoms: _425  and  _428
REMARK  171  A    between atoms: _428  and  _429
REMARK  172  A    between atoms: _432  and  _434
REMARK  173  A    between atoms: _434  and  _435
REMARK  174  A    between atoms: _434  and  _437
REMARK  175  A    between atoms: _437  and  _438
REMARK  176  A    between atoms: _443  and  _444
REMARK  177  A    between atoms: _446  and  _448
REMARK  178  A    between atoms: _448  and  _449
REMARK  179  A    between atoms: _448  and  _451
REMARK  180  A    between atoms: _451  and  _452
REMARK  181  A    between atoms: _455  and  _457
REMARK  182  A    between atoms: _457  and  _458
REMARK  183  A    between atoms: _457  and  _460
REMARK  184  A    between atoms: _460  and  _461
REMARK  185  A    between atoms: _464  and  _466
REMARK  186  A    between atoms: _470  and  _472
REMARK  187  A    between atoms: _477  and  _480
REMARK  188  A    between atoms: _480  and  _481
REMARK  189  A    between atoms: _481  and  _482
REMARK  190  A    between atoms: _482  and  _483
REMARK  191  A    between atoms: _483  and  _484
REMARK  192  A    between atoms: _490  and  _493
REMARK  193  A    between atoms: _491  and  _497
REMARK  194  A    between atoms: _493  and  _494
REMARK  195  A    between atoms: _497  and  _499
REMARK  196  A    between atoms: _499  and  _500
REMARK  197  A    between atoms: _499  and  _502
REMARK  198  A    between atoms: _502  and  _503
REMARK  199  A    between atoms: _506  and  _508
REMARK  200  A    between atoms: _508  and  _509
REMARK  201  A    between atoms: _508  and  _511
REMARK  202  A    between atoms: _511  and  _512
REMARK  203  A    between atoms: _515  and  _517
REMARK  204  A    between atoms: _517  and  _518
REMARK  205  A    between atoms: _517  and  _520
REMARK  206  A    between atoms: _520  and  _521
REMARK  207  A    between atoms: _524  and  _526
REMARK  208  A    between atoms: _526  and  _527
REMARK  209  A    between atoms: _529  and  _531
REMARK  210  A    between atoms: _531  and  _532
REMARK  211  A    between atoms: _531  and  _534
REMARK  212  A    between atoms: _534  and  _535
REMARK  213  A    between atoms: _538  and  _540
REMARK  214  A    between atoms: _540  and  _541
REMARK  215  A    between atoms: _540  and  _543
REMARK  216  A    between atoms: _543  and  _544
REMARK  217  A    between atoms: _550  and  _552
REMARK  218  A    between atoms: _552  and  _553
REMARK  219  A    between atoms: _552  and  _555
REMARK  220  A    between atoms: _555  and  _556
REMARK  221  A    between atoms: _559  and  _561
REMARK  222  A    between atoms: _561  and  _562
REMARK  223  A    between atoms: _561  and  _564
REMARK  224  A    between atoms: _564  and  _565
REMARK  225  A    between atoms: _568  and  _570
REMARK  226  A    between atoms: _570  and  _571
REMARK  227  A    between atoms: _573  and  _575
REMARK  228  A    between atoms: _575  and  _576
REMARK  229  A    between atoms: _575  and  _578
REMARK  230  A    between atoms: _578  and  _579
REMARK  231  A    between atoms: _581  and  _583
REMARK  232  A    between atoms: _583  and  _584
REMARK  233  A    between atoms: _583  and  _586
REMARK  234  A    between atoms: _586  and  _587
REMARK  235  A    between atoms: _592  and  _594
REMARK  236  A    between atoms: _594  and  _595
REMARK  237  A    between atoms: _594  and  _597
REMARK  238  A    between atoms: _600  and  _602
REMARK  239  A    between atoms: _602  and  _603
REMARK  240  A    between atoms: _602  and  _605
REMARK  241  A    between atoms: _605  and  _606
REMARK  242  A    between atoms: _611  and  _613
REMARK  243  A    between atoms: _613  and  _614
REMARK  244  A    between atoms: _616  and  _618
REMARK  245  A    between atoms: _618  and  _619
REMARK  246  A    between atoms: _618  and  _621
REMARK  247  A    between atoms: _621  and  _622
REMARK  248  A    between atoms: _627  and  _629
REMARK  249  A    between atoms: _629  and  _630
REMARK                            x       y       z     vdW  Elec       q    Type
REMARK                         _______ _______ _______ _____ _____    ______ ____
ROOT
ATOM      1  C   SER A   1      31.643  77.053  20.951  0.00  0.00    +0.000 C 
ATOM      2  N   HIS A   2      31.295  75.882  21.474  0.00  0.00    +0.000 N 
ATOM      3  H   HIS A   2      31.785  75.022  21.155  0.00  0.00    +0.000 HD
ATOM      4  O   SER A   1      30.921  78.047  21.060  0.00  0.00    +0.000 OA
ENDROOT
BRANCH   1   5
ATOM      5  CA  SER A   1      32.939  77.044  20.146  0.00  0.00    +0.000 C 
BRANCH   5   6
ATOM      6  N   SER A   1      32.985  78.151  19.222  0.00  0.00    +0.000 NA
ATOM      7  H   SER A   1      33.179  79.110  19.573  0.00  0.00    +0.000 HD
ENDBRANCH   5   6
BRANCH   5   8
ATOM      8  CB  SER A   1      34.112  77.122  21.077  0.00  0.00    +0.000 C 
BRANCH   8   9
ATOM      9  OG  SER A   1      34.108  76.006  21.979  0.00  0.00    +0.000 OA
ATOM     10  H   SER A   1      34.887  76.071  22.586  0.00  0.00    +0.000 HD
ENDBRANCH   8   9
ENDBRANCH   5   8
ENDBRANCH   1   5
BRANCH   2  11
ATOM     11  CA  HIS A   2      30.250  75.766  22.478  0.00  0.00    +0.000 C 
BRANCH  11  12
ATOM     12  C   HIS A   2      30.633  76.485  23.794  0.00  0.00    +0.000 C 
ATOM     13  O   HIS A   2      29.743  76.789  24.598  0.00  0.00    +0.000 OA
ENDBRANCH  11  12
BRANCH  11  14
ATOM     14  CB  HIS A   2      29.971  74.292  22.725  0.00  0.00    +0.000 C 
BRANCH  14  15
ATOM     15  CG  HIS A   2      31.209  73.474  23.076  0.00  0.00    +0.000 A 
ATOM     16  CD2 HIS A   2      31.127  72.391  23.908  0.00  0.00    +0.000 A 
ATOM     17  NE2 HIS A   2      32.344  71.934  24.002  0.00  0.00    +0.000 NA
ATOM     18  CE1 HIS A   2      33.180  72.651  23.288  0.00  0.00    +0.000 A 
ATOM     19  ND1 HIS A   2      32.500  73.604  22.711  0.00  0.00    +0.000 NA
ENDBRANCH  14  15
ENDBRANCH  11  14
ENDBRANCH   2  11
TORSDOF 8
REMARK  Name = ../refined-set-2016/1tkb/1tkb_pocket.pdb
REMARK  249 active torsions:
REMARK  status: ('A' for Active; 'I' for Inactive)
REMARK    1  A    between atoms: _1  and  _3
REMARK    2  A    between atoms: _3  and  _4
REMARK    3  A    between atoms: _3  and  _6
REMARK    4  A    between atoms: _6  and  _7
REMARK    5  A    between atoms: _9  and  _11
REMARK    6  A    between atoms: _11  and  _12
REMARK    7  A    between atoms: _15  and  _17
REMARK    8  A    between atoms: _17  and  _18
REMARK    9  A    between atoms: _17  and  _20
REMARK   10  A    between atoms: _20  and  _21
REMARK   11  A    between atoms: _24  and  _26
REMARK   12  A    between atoms: _26  and  _27
REMARK   13  A    between atoms: _26  and  _29
REMARK   14  A    between atoms: _29  and  _30
REMARK   15  A    between atoms: _33  and  _35
REMARK   16  A    between atoms: _35  and  _36
REMARK   17  A    between atoms: _35  and  _38
REMARK   18  A    between atoms: _38  and  _39
REMARK   19  A    between atoms: _42  and  _44
REMARK   20  A    between atoms: _44  and  _45
REMARK   21  A    between atoms: _44  and  _47
REMARK   22  A    between atoms: _47  and  _48
REMARK   23  A    between atoms: _50  and  _52
REMARK   24  A    between atoms: _52  and  _53
REMARK   25  A    between atoms: _52  and  _55
REMARK   26  A    between atoms: _55  and  _56
REMARK   27  A    between atoms: _61  and  _63
REMARK   28  A    between atoms: _63  and  _64
REMARK   29  A    between atoms: _66  and  _68
REMARK   30  A    between atoms: _68  and  _69
REMARK   31  A    between atoms: _68  and  _71
REMARK   32  A    between atoms: _71  and  _72
REMARK   33  A    between atoms: _75  and  _77
REMARK   34  A    between atoms: _77  and  _78
REMARK   35  A    between atoms: _77  and  _80
REMARK   36  A    between atoms: _80  and  _81
REMARK   37  A    between atoms: _81  and  _82
REMARK   38  A    between atoms: _82  and  _83
REMARK   39  A    between atoms: _92  and  _94
REMARK   40  A    between atoms: _94  and  _95
REMARK   41  A    between atoms: _94  and  _97
REMARK   42  A    between atoms: _97  and  _98
REMARK   43  A    between atoms: _98  and  _99
REMARK   44  A    between atoms: _102  and  _104
REMARK   45  A    between atoms: _104  and  _105
REMARK   46  A    between atoms: _104  and  _107
REMARK   47  A    between atoms: _107  and  _108
REMARK   48  A    between atoms: _113  and  _115
REMARK   49  A    between atoms: _115  and  _116
REMARK   50  A    between atoms: _115  and  _118
REMARK   51  A    between atoms: _118  and  _119
REMARK   52  A    between atoms: _122  and  _124
REMARK   53  A    between atoms: _124  and  _125
REMARK   54  A    between atoms: _124  and  _127
REMARK   55  A    between atoms: _127  and  _128
REMARK   56  A    between atoms: _134  and  _136
REMARK   57  A    between atoms: _136  and  _137
REMARK   58  A    between atoms: _136  and  _139
REMARK   59  A    between atoms: _139  and  _140
REMARK   60  A    between atoms: _145  and  _147
REMARK   61  A    between atoms: _147  and  _148
REMARK   62  A    between atoms: _147  and  _150
REMARK   63  A    between atoms: _150  and  _151
REMARK   64  A    between atoms: _157  and  _159
REMARK   65  A    between atoms: _159  and  _160
REMARK   66  A    between atoms: _159  and  _162
REMARK   67  A    between atoms: _165  and  _167
REMARK   68  A    between atoms: _167  and  _168
REMARK   69  A    between atoms: _167  and  _170
REMARK   70  A    between atoms: _170  and  _171
REMARK   71  A    between atoms: _176  and  _177
REMARK   72  A    between atoms: _179  and  _181
REMARK   73  A    between atoms: _181  and  _182
REMARK   74  A    between atoms: _181  and  _184
REMARK   75  A    between atoms: _184  and  _185
REMARK   76  A    between atoms: _188  and  _190
REMARK   77  A    between atoms: _190  and  _191
REMARK   78  A    between atoms: _190  and  _193
REMARK   79  A    between atoms: _193  and  _194
REMARK   80  A    between atoms: _197  and  _199
REMARK   81  A    between atoms: _199  and  _200
REMARK   82  A    between atoms: _199  and  _202
REMARK   83  A    between atoms: _202  and  _203
REMARK   84  A    between atoms: _208  and  _210
REMARK   85  A    between atoms: _210  and  _211
REMARK   86  A    between atoms: _210  and  _213
REMARK   87  A    between atoms: _213  and  _214
REMARK   88  A    between atoms: _220  and  _221
REMARK   89  A    between atoms: _226  and  _228
REMARK   90  A    between atoms: _228  and  _229
REMARK   91  A    between atoms: _231  and  _233
REMARK   92  A    between atoms: _233  and  _234
REMARK   93  A    between atoms: _238  and  _239
REMARK   94  A    between atoms: _244  and  _246
REMARK   95  A    between atoms: _246  and  _247
REMARK   96  A    between atoms: _249  and  _251
REMARK   97  A    between atoms: _251  and  _252
REMARK   98  A    between atoms: _251  and  _254
REMARK   99  A    between atoms: _254  and  _255
REMARK  100  A    between atoms: _255  and  _256
REMARK  101  A    between atoms: _258  and  _260
REMARK  102  A    between atoms: _260  and  _261
REMARK  103  A    between atoms: _260  and  _263
REMARK  104  A    between atoms: _263  and  _264
REMARK  105  A    between atoms: _266  and  _268
REMARK  106  A    between atoms: _268  and  _269
REMARK  107  A    between atoms: _268  and  _271
REMARK  108  A    between atoms: _271  and  _272
REMARK  109  A    between atoms: _277  and  _279
REMARK  110  A    between atoms: _279  and  _280
REMARK  111  A    between atoms: _282  and  _284
REMARK  112  A    between atoms: _284  and  _285
REMARK  113  A    between atoms: _284  and  _287
REMARK  114  A    between atoms: _287  and  _288
REMARK  115  A    between atoms: _293  and  _295
REMARK  116  A    between atoms: _295  and  _296
REMARK  117  A    between atoms: _299  and  _301
REMARK  118  A    between atoms: _301  and  _302
REMARK  119  A    between atoms: _301  and  _304
REMARK  120  A    between atoms: _304  and  _305
REMARK  121  A    between atoms: _310  and  _312
REMARK  122  A    between atoms: _312  and  _313
REMARK  123  A    between atoms: _312  and  _315
REMARK  124  A    between atoms: _315  and  _316
REMARK  125  A    between atoms: _319  and  _321
REMARK  126  A    between atoms: _321  and  _322
REMARK  127  A    between atoms: _325  and  _326
REMARK  128  A    between atoms: _331  and  _333
REMARK  129  A    between atoms: _333  and  _334
REMARK  130  A    between atoms: _333  and  _336
REMARK  131  A    between atoms: _336  and  _337
REMARK  132  A    between atoms: _340  and  _342
REMARK  133  A    between atoms: _342  and  _343
REMARK  134  A    between atoms: _345  and  _347
REMARK  135  A    between atoms: _347  and  _348
REMARK  136  A    between atoms: _347  and  _350
REMARK  137  A    between atoms: _350  and  _351
REMARK  138  A    between atoms: _351  and  _352
REMARK  139  A    between atoms: _357  and  _359
REMARK  140  A    between atoms: _359  and  _360
REMARK  141  A    between atoms: _359  and  _362
REMARK  142  A    between atoms: _362  and  _363
REMARK  143  A    between atoms: _366  and  _368
REMARK  144  A    between atoms: _368  and  _369
REMARK  145  A    between atoms: _371  and  _373
REMARK  146  A    between atoms: _373  and  _374
REMARK  147  A    between atoms: _373  and  _376
REMARK  148  A    between atoms: _376  and  _377
REMARK  149  A    between atoms: _380  and  _382
REMARK  150  A    between atoms: _382  and  _383
REMARK  151  A    between atoms: _385  and  _387
REMARK  152  A    between atoms: _387  and  _388
REMARK  153  A    between atoms: _387  and  _390
REMARK  154  A    between atoms: _392  and  _394
REMARK  155  A    between atoms: _394  and  _395
REMARK  156  A    between atoms: _394  and  _397
REMARK  157  A    between atoms: _397  and  _398
REMARK  158  A    between atoms: _401  and  _403
REMARK  159  A    between atoms: _403  and  _404
REMARK  160  A    between atoms: _403  and  _406
REMARK  161  A    between atoms: _406  and  _407
REMARK  162  A    between atoms: _407  and  _408
REMARK  163  A    between atoms: _413  and  _415
REMARK  164  A    between atoms: _415  and  _416
REMARK  165  A    between atoms: _415  and  _418
REMARK  166  A    between atoms: _418  and  _419
REMARK  167  A    between atoms: _419  and  _420
REMARK  168  A    between atoms: _423  and  _425
REMARK  169  A    between atoms: _425  and  _426
REMARK  170  A    between atoms: _425  and  _428
REMARK  171  A    between atoms: _428  and  _429
REMARK  172  A    between atoms: _432  and  _434
REMARK  173  A    between atoms: _434  and  _435
REMARK  174  A    between atoms: _434  and  _437
REMARK  175  A    between atoms: _437  and  _438
REMARK  176  A    between atoms: _443  and  _444
REMARK  177  A    between atoms: _446  and  _448
REMARK  178  A    between atoms: _448  and  _449
REMARK  179  A    between atoms: _448  and  _451
REMARK  180  A    between atoms: _451  and  _452
REMARK  181  A    between atoms: _455  and  _457
REMARK  182  A    between atoms: _457  and  _458
REMARK  183  A    between atoms: _457  and  _460
REMARK  184  A    between atoms: _460  and  _461
REMARK  185  A    between atoms: _464  and  _466
REMARK  186  A    between atoms: _470  and  _472
REMARK  187  A    between atoms: _477  and  _480
REMARK  188  A    between atoms: _480  and  _481
REMARK  189  A    between atoms: _481  and  _482
REMARK  190  A    between atoms: _482  and  _483
REMARK  191  A    between atoms: _483  and  _484
REMARK  192  A    between atoms: _490  and  _493
REMARK  193  A    between atoms: _491  and  _497
REMARK  194  A    between atoms: _493  and  _494
REMARK  195  A    between atoms: _497  and  _499
REMARK  196  A    between atoms: _499  and  _500
REMARK  197  A    between atoms: _499  and  _502
REMARK  198  A    between atoms: _502  and  _503
REMARK  199  A    between atoms: _506  and  _508
REMARK  200  A    between atoms: _508  and  _509
REMARK  201  A    between atoms: _508  and  _511
REMARK  202  A    between atoms: _511  and  _512
REMARK  203  A    between atoms: _515  and  _517
REMARK  204  A    between atoms: _517  and  _518
REMARK  205  A    between atoms: _517  and  _520
REMARK  206  A    between atoms: _520  and  _521
REMARK  207  A    between atoms: _524  and  _526
REMARK  208  A    between atoms: _526  and  _527
REMARK  209  A    between atoms: _529  and  _531
REMARK  210  A    between atoms: _531  and  _532
REMARK  211  A    between atoms: _531  and  _534
REMARK  212  A    between atoms: _534  and  _535
REMARK  213  A    between atoms: _538  and  _540
REMARK  214  A    between atoms: _540  and  _541
REMARK  215  A    between atoms: _540  and  _543
REMARK  216  A    between atoms: _543  and  _544
REMARK  217  A    between atoms: _550  and  _552
REMARK  218  A    between atoms: _552  and  _553
REMARK  219  A    between atoms: _552  and  _555
REMARK  220  A    between atoms: _555  and  _556
REMARK  221  A    between atoms: _559  and  _561
REMARK  222  A    between atoms: _561  and  _562
REMARK  223  A    between atoms: _561  and  _564
REMARK  224  A    between atoms: _564  and  _565
REMARK  225  A    between atoms: _568  and  _570
REMARK  226  A    between atoms: _570  and  _571
REMARK  227  A    between atoms: _573  and  _575
REMARK  228  A    between atoms: _575  and  _576
REMARK  229  A    between atoms: _575  and  _578
REMARK  230  A    between atoms: _578  and  _579
REMARK  231  A    between atoms: _581  and  _583
REMARK  232  A    between atoms: _583  and  _584
REMARK  233  A    between atoms: _583  and  _586
REMARK  234  A    between atoms: _586  and  _587
REMARK  235  A    between atoms: _592  and  _594
REMARK  236  A    between atoms: _594  and  _595
REMARK  237  A    between atoms: _594  and  _597
REMARK  238  A    between atoms: _600  and  _602
REMARK  239  A    between atoms: _602  and  _603
REMARK  240  A    between atoms: _602  and  _605
REMARK  241  A    between atoms: _605  and  _606
REMARK  242  A    between atoms: _611  and  _613
REMARK  243  A    between atoms: _613  and  _614
REMARK  244  A    between atoms: _616  and  _618
REMARK  245  A    between atoms: _618  and  _619
REMARK  246  A    between atoms: _618  and  _621
REMARK  247  A    between atoms: _621  and  _622
REMARK  248  A    between atoms: _627  and  _629
REMARK  249  A    between atoms: _629  and  _630
REMARK                            x       y       z     vdW  Elec       q    Type
REMARK                         _______ _______ _______ _____ _____    ______ ____
ROOT
ATOM      1  CA  HIS A   2      27.219  79.355  24.030  0.00  0.00    +0.000 C 
ENDROOT
BRANCH   1   3
ATOM      2  C   VAL A   1      29.220  80.717  23.997  0.00  0.00    +0.000 C 
ATOM      3  N   HIS A   2      28.660  79.502  24.056  0.00  0.00    +0.000 N 
ATOM      4  H   HIS A   2      29.264  78.658  24.121  0.00  0.00    +0.000 HD
ATOM      5  O   VAL A   1      28.517  81.719  23.952  0.00  0.00    +0.000 OA
BRANCH   2   6
ATOM      6  CA  VAL A   1      30.711  80.897  24.078  0.00  0.00    +0.000 C 
BRANCH   6   7
ATOM      7  CB  VAL A   1      31.254  81.740  22.897  0.00  0.00    +0.000 C 
ATOM      8  CG2 VAL A   1      32.669  82.081  23.341  0.00  0.00    +0.000 C 
ATOM      9  CG1 VAL A   1      31.335  81.067  21.546  0.00  0.00    +0.000 C 
ENDBRANCH   6   7
BRANCH   6  10
ATOM     10  N   VAL A   1      31.382  79.628  24.113  0.00  0.00    +0.000 NA
ATOM     11  H   VAL A   1      31.763  79.221  23.235  0.00  0.00    +0.000 HD
ENDBRANCH   6  10
ENDBRANCH   2   6
ENDBRANCH   1   3
BRANCH   1  12
ATOM     12  C   HIS A   2      26.596  80.030  25.235  0.00  0.00    +0.000 C 
ATOM     13  N   GLY A   3      26.957  79.647  26.466  0.00  0.00    +0.000 N 
ATOM     14  H   GLY A   3      27.750  78.988  26.603  0.00  0.00    +0.000 HD
ATOM     15  O   HIS A   2      25.703  80.858  25.053  0.00  0.00    +0.000 OA
BRANCH  13  16
ATOM     16  CA  GLY A   3      26.223  80.167  27.608  0.00  0.00    +0.000 C 
BRANCH  16  17
ATOM     17  C   GLY A   3      27.052  80.663  28.761  0.00  0.00    +0.000 C 
ATOM     18  O   GLY A   3      26.655  80.524  29.909  0.00  0.00    +0.000 OA
ENDBRANCH  16  17
ENDBRANCH  13  16
ENDBRANCH   1  12
BRANCH   1  19
ATOM     19  CB  HIS A   2      26.701  77.881  24.073  0.00  0.00    +0.000 C 
BRANCH  19  20
ATOM     20  CG  HIS A   2      25.160  77.795  24.164  0.00  0.00    +0.000 A 
ATOM     21  CD2 HIS A   2      24.437  77.622  25.334  0.00  0.00    +0.000 A 
ATOM     22  NE2 HIS A   2      23.166  77.682  25.042  0.00  0.00    +0.000 NA
ATOM     23  CE1 HIS A   2      23.057  77.883  23.748  0.00  0.00    +0.000 A 
ATOM     24  ND1 HIS A   2      24.246  77.948  23.211  0.00  0.00    +0.000 NA
ENDBRANCH  19  20
ENDBRANCH   1  19
TORSDOF 9
REMARK  Name = ../refined-set-2016/1tkb/1tkb_pocket.pdb
REMARK  249 active torsions:
REMARK  status: ('A' for Active; 'I' for Inactive)
REMARK    1  A    between atoms: _1  and  _3
REMARK    2  A    between atoms: _3  and  _4
REMARK    3  A    between atoms: _3  and  _6
REMARK    4  A    between atoms: _6  and  _7
REMARK    5  A    between atoms: _9  and  _11
REMARK    6  A    between atoms: _11  and  _12
REMARK    7  A    between atoms: _15  and  _17
REMARK    8  A    between atoms: _17  and  _18
REMARK    9  A    between atoms: _17  and  _20
REMARK   10  A    between atoms: _20  and  _21
REMARK   11  A    between atoms: _24  and  _26
REMARK   12  A    between atoms: _26  and  _27
REMARK   13  A    between atoms: _26  and  _29
REMARK   14  A    between atoms: _29  and  _30
REMARK   15  A    between atoms: _33  and  _35
REMARK   16  A    between atoms: _35  and  _36
REMARK   17  A    between atoms: _35  and  _38
REMARK   18  A    between atoms: _38  and  _39
REMARK   19  A    between atoms: _42  and  _44
REMARK   20  A    between atoms: _44  and  _45
REMARK   21  A    between atoms: _44  and  _47
REMARK   22  A    between atoms: _47  and  _48
REMARK   23  A    between atoms: _50  and  _52
REMARK   24  A    between atoms: _52  and  _53
REMARK   25  A    between atoms: _52  and  _55
REMARK   26  A    between atoms: _55  and  _56
REMARK   27  A    between atoms: _61  and  _63
REMARK   28  A    between atoms: _63  and  _64
REMARK   29  A    between atoms: _66  and  _68
REMARK   30  A    between atoms: _68  and  _69
REMARK   31  A    between atoms: _68  and  _71
REMARK   32  A    between atoms: _71  and  _72
REMARK   33  A    between atoms: _75  and  _77
REMARK   34  A    between atoms: _77  and  _78
REMARK   35  A    between atoms: _77  and  _80
REMARK   36  A    between atoms: _80  and  _81
REMARK   37  A    between atoms: _81  and  _82
REMARK   38  A    between atoms: _82  and  _83
REMARK   39  A    between atoms: _92  and  _94
REMARK   40  A    between atoms: _94  and  _95
REMARK   41  A    between atoms: _94  and  _97
REMARK   42  A    between atoms: _97  and  _98
REMARK   43  A    between atoms: _98  and  _99
REMARK   44  A    between atoms: _102  and  _104
REMARK   45  A    between atoms: _104  and  _105
REMARK   46  A    between atoms: _104  and  _107
REMARK   47  A    between atoms: _107  and  _108
REMARK   48  A    between atoms: _113  and  _115
REMARK   49  A    between atoms: _115  and  _116
REMARK   50  A    between atoms: _115  and  _118
REMARK   51  A    between atoms: _118  and  _119
REMARK   52  A    between atoms: _122  and  _124
REMARK   53  A    between atoms: _124  and  _125
REMARK   54  A    between atoms: _124  and  _127
REMARK   55  A    between atoms: _127  and  _128
REMARK   56  A    between atoms: _134  and  _136
REMARK   57  A    between atoms: _136  and  _137
REMARK   58  A    between atoms: _136  and  _139
REMARK   59  A    between atoms: _139  and  _140
REMARK   60  A    between atoms: _145  and  _147
REMARK   61  A    between atoms: _147  and  _148
REMARK   62  A    between atoms: _147  and  _150
REMARK   63  A    between atoms: _150  and  _151
REMARK   64  A    between atoms: _157  and  _159
REMARK   65  A    between atoms: _159  and  _160
REMARK   66  A    between atoms: _159  and  _162
REMARK   67  A    between atoms: _165  and  _167
REMARK   68  A    between atoms: _167  and  _168
REMARK   69  A    between atoms: _167  and  _170
REMARK   70  A    between atoms: _170  and  _171
REMARK   71  A    between atoms: _176  and  _177
REMARK   72  A    between atoms: _179  and  _181
REMARK   73  A    between atoms: _181  and  _182
REMARK   74  A    between atoms: _181  and  _184
REMARK   75  A    between atoms: _184  and  _185
REMARK   76  A    between atoms: _188  and  _190
REMARK   77  A    between atoms: _190  and  _191
REMARK   78  A    between atoms: _190  and  _193
REMARK   79  A    between atoms: _193  and  _194
REMARK   80  A    between atoms: _197  and  _199
REMARK   81  A    between atoms: _199  and  _200
REMARK   82  A    between atoms: _199  and  _202
REMARK   83  A    between atoms: _202  and  _203
REMARK   84  A    between atoms: _208  and  _210
REMARK   85  A    between atoms: _210  and  _211
REMARK   86  A    between atoms: _210  and  _213
REMARK   87  A    between atoms: _213  and  _214
REMARK   88  A    between atoms: _220  and  _221
REMARK   89  A    between atoms: _226  and  _228
REMARK   90  A    between atoms: _228  and  _229
REMARK   91  A    between atoms: _231  and  _233
REMARK   92  A    between atoms: _233  and  _234
REMARK   93  A    between atoms: _238  and  _239
REMARK   94  A    between atoms: _244  and  _246
REMARK   95  A    between atoms: _246  and  _247
REMARK   96  A    between atoms: _249  and  _251
REMARK   97  A    between atoms: _251  and  _252
REMARK   98  A    between atoms: _251  and  _254
REMARK   99  A    between atoms: _254  and  _255
REMARK  100  A    between atoms: _255  and  _256
REMARK  101  A    between atoms: _258  and  _260
REMARK  102  A    between atoms: _260  and  _261
REMARK  103  A    between atoms: _260  and  _263
REMARK  104  A    between atoms: _263  and  _264
REMARK  105  A    between atoms: _266  and  _268
REMARK  106  A    between atoms: _268  and  _269
REMARK  107  A    between atoms: _268  and  _271
REMARK  108  A    between atoms: _271  and  _272
REMARK  109  A    between atoms: _277  and  _279
REMARK  110  A    between atoms: _279  and  _280
REMARK  111  A    between atoms: _282  and  _284
REMARK  112  A    between atoms: _284  and  _285
REMARK  113  A    between atoms: _284  and  _287
REMARK  114  A    between atoms: _287  and  _288
REMARK  115  A    between atoms: _293  and  _295
REMARK  116  A    between atoms: _295  and  _296
REMARK  117  A    between atoms: _299  and  _301
REMARK  118  A    between atoms: _301  and  _302
REMARK  119  A    between atoms: _301  and  _304
REMARK  120  A    between atoms: _304  and  _305
REMARK  121  A    between atoms: _310  and  _312
REMARK  122  A    between atoms: _312  and  _313
REMARK  123  A    between atoms: _312  and  _315
REMARK  124  A    between atoms: _315  and  _316
REMARK  125  A    between atoms: _319  and  _321
REMARK  126  A    between atoms: _321  and  _322
REMARK  127  A    between atoms: _325  and  _326
REMARK  128  A    between atoms: _331  and  _333
REMARK  129  A    between atoms: _333  and  _334
REMARK  130  A    between atoms: _333  and  _336
REMARK  131  A    between atoms: _336  and  _337
REMARK  132  A    between atoms: _340  and  _342
REMARK  133  A    between atoms: _342  and  _343
REMARK  134  A    between atoms: _345  and  _347
REMARK  135  A    between atoms: _347  and  _348
REMARK  136  A    between atoms: _347  and  _350
REMARK  137  A    between atoms: _350  and  _351
REMARK  138  A    between atoms: _351  and  _352
REMARK  139  A    between atoms: _357  and  _359
REMARK  140  A    between atoms: _359  and  _360
REMARK  141  A    between atoms: _359  and  _362
REMARK  142  A    between atoms: _362  and  _363
REMARK  143  A    between atoms: _366  and  _368
REMARK  144  A    between atoms: _368  and  _369
REMARK  145  A    between atoms: _371  and  _373
REMARK  146  A    between atoms: _373  and  _374
REMARK  147  A    between atoms: _373  and  _376
REMARK  148  A    between atoms: _376  and  _377
REMARK  149  A    between atoms: _380  and  _382
REMARK  150  A    between atoms: _382  and  _383
REMARK  151  A    between atoms: _385  and  _387
REMARK  152  A    between atoms: _387  and  _388
REMARK  153  A    between atoms: _387  and  _390
REMARK  154  A    between atoms: _392  and  _394
REMARK  155  A    between atoms: _394  and  _395
REMARK  156  A    between atoms: _394  and  _397
REMARK  157  A    between atoms: _397  and  _398
REMARK  158  A    between atoms: _401  and  _403
REMARK  159  A    between atoms: _403  and  _404
REMARK  160  A    between atoms: _403  and  _406
REMARK  161  A    between atoms: _406  and  _407
REMARK  162  A    between atoms: _407  and  _408
REMARK  163  A    between atoms: _413  and  _415
REMARK  164  A    between atoms: _415  and  _416
REMARK  165  A    between atoms: _415  and  _418
REMARK  166  A    between atoms: _418  and  _419
REMARK  167  A    between atoms: _419  and  _420
REMARK  168  A    between atoms: _423  and  _425
REMARK  169  A    between atoms: _425  and  _426
REMARK  170  A    between atoms: _425  and  _428
REMARK  171  A    between atoms: _428  and  _429
REMARK  172  A    between atoms: _432  and  _434
REMARK  173  A    between atoms: _434  and  _435
REMARK  174  A    between atoms: _434  and  _437
REMARK  175  A    between atoms: _437  and  _438
REMARK  176  A    between atoms: _443  and  _444
REMARK  177  A    between atoms: _446  and  _448
REMARK  178  A    between atoms: _448  and  _449
REMARK  179  A    between atoms: _448  and  _451
REMARK  180  A    between atoms: _451  and  _452
REMARK  181  A    between atoms: _455  and  _457
REMARK  182  A    between atoms: _457  and  _458
REMARK  183  A    between atoms: _457  and  _460
REMARK  184  A    between atoms: _460  and  _461
REMARK  185  A    between atoms: _464  and  _466
REMARK  186  A    between atoms: _470  and  _472
REMARK  187  A    between atoms: _477  and  _480
REMARK  188  A    between atoms: _480  and  _481
REMARK  189  A    between atoms: _481  and  _482
REMARK  190  A    between atoms: _482  and  _483
REMARK  191  A    between atoms: _483  and  _484
REMARK  192  A    between atoms: _490  and  _493
REMARK  193  A    between atoms: _491  and  _497
REMARK  194  A    between atoms: _493  and  _494
REMARK  195  A    between atoms: _497  and  _499
REMARK  196  A    between atoms: _499  and  _500
REMARK  197  A    between atoms: _499  and  _502
REMARK  198  A    between atoms: _502  and  _503
REMARK  199  A    between atoms: _506  and  _508
REMARK  200  A    between atoms: _508  and  _509
REMARK  201  A    between atoms: _508  and  _511
REMARK  202  A    between atoms: _511  and  _512
REMARK  203  A    between atoms: _515  and  _517
REMARK  204  A    between atoms: _517  and  _518
REMARK  205  A    between atoms: _517  and  _520
REMARK  206  A    between atoms: _520  and  _521
REMARK  207  A    between atoms: _524  and  _526
REMARK  208  A    between atoms: _526  and  _527
REMARK  209  A    between atoms: _529  and  _531
REMARK  210  A    between atoms: _531  and  _532
REMARK  211  A    between atoms: _531  and  _534
REMARK  212  A    between atoms: _534  and  _535
REMARK  213  A    between atoms: _538  and  _540
REMARK  214  A    between atoms: _540  and  _541
REMARK  215  A    between atoms: _540  and  _543
REMARK  216  A    between atoms: _543  and  _544
REMARK  217  A    between atoms: _550  and  _552
REMARK  218  A    between atoms: _552  and  _553
REMARK  219  A    between atoms: _552  and  _555
REMARK  220  A    between atoms: _555  and  _556
REMARK  221  A    between atoms: _559  and  _561
REMARK  222  A    between atoms: _561  and  _562
REMARK  223  A    between atoms: _561  and  _564
REMARK  224  A    between atoms: _564  and  _565
REMARK  225  A    between atoms: _568  and  _570
REMARK  226  A    between atoms: _570  and  _571
REMARK  227  A    between atoms: _573  and  _575
REMARK  228  A    between atoms: _575  and  _576
REMARK  229  A    between atoms: _575  and  _578
REMARK  230  A    between atoms: _578  and  _579
REMARK  231  A    between atoms: _581  and  _583
REMARK  232  A    between atoms: _583  and  _584
REMARK  233  A    between atoms: _583  and  _586
REMARK  234  A    between atoms: _586  and  _587
REMARK  235  A    between atoms: _592  and  _594
REMARK  236  A    between atoms: _594  and  _595
REMARK  237  A    between atoms: _594  and  _597
REMARK  238  A    between atoms: _600  and  _602
REMARK  239  A    between atoms: _602  and  _603
REMARK  240  A    between atoms: _602  and  _605
REMARK  241  A    between atoms: _605  and  _606
REMARK  242  A    between atoms: _611  and  _613
REMARK  243  A    between atoms: _613  and  _614
REMARK  244  A    between atoms: _616  and  _618
REMARK  245  A    between atoms: _618  and  _619
REMARK  246  A    between atoms: _618  and  _621
REMARK  247  A    between atoms: _621  and  _622
REMARK  248  A    between atoms: _627  and  _629
REMARK  249  A    between atoms: _629  and  _630
REMARK                            x       y       z     vdW  Elec       q    Type
REMARK                         _______ _______ _______ _____ _____    ______ ____
ROOT
ATOM      1  CB  HIS A   1       3.221  69.315  21.411  0.00  0.00    +0.000 C 
ENDROOT
BRANCH   1   2
ATOM      2  CG  HIS A   1       4.124  69.903  22.494  0.00  0.00    +0.000 A 
ATOM      3  CD2 HIS A   1       3.959  71.106  23.162  0.00  0.00    +0.000 A 
ATOM      4  NE2 HIS A   1       5.055  71.249  23.861  0.00  0.00    +0.000 NA
ATOM      5  CE1 HIS A   1       5.856  70.215  23.690  0.00  0.00    +0.000 A 
ATOM      6  ND1 HIS A   1       5.294  69.379  22.864  0.00  0.00    +0.000 NA
ENDBRANCH   1   2
BRANCH   1   7
ATOM      7  CA  HIS A   1       1.833  69.864  21.328  0.00  0.00    +0.000 C 
BRANCH   7   8
ATOM      8  N   HIS A   1       0.978  68.821  20.783  0.00  0.00    +0.000 NA
ATOM      9  H   HIS A   1       1.403  67.911  20.513  0.00  0.00    +0.000 HD
ENDBRANCH   7   8
BRANCH   7  10
ATOM     10  C   HIS A   1       1.794  71.098  20.449  0.00  0.00    +0.000 C 
ATOM     11  O   HIS A   1       1.702  72.217  20.967  0.00  0.00    +0.000 OA
ENDBRANCH   7  10
ENDBRANCH   1   7
TORSDOF 4
REMARK  Name = ../refined-set-2016/1tkb/1tkb_pocket.pdb
REMARK  249 active torsions:
REMARK  status: ('A' for Active; 'I' for Inactive)
REMARK    1  A    between atoms: _1  and  _3
REMARK    2  A    between atoms: _3  and  _4
REMARK    3  A    between atoms: _3  and  _6
REMARK    4  A    between atoms: _6  and  _7
REMARK    5  A    between atoms: _9  and  _11
REMARK    6  A    between atoms: _11  and  _12
REMARK    7  A    between atoms: _15  and  _17
REMARK    8  A    between atoms: _17  and  _18
REMARK    9  A    between atoms: _17  and  _20
REMARK   10  A    between atoms: _20  and  _21
REMARK   11  A    between atoms: _24  and  _26
REMARK   12  A    between atoms: _26  and  _27
REMARK   13  A    between atoms: _26  and  _29
REMARK   14  A    between atoms: _29  and  _30
REMARK   15  A    between atoms: _33  and  _35
REMARK   16  A    between atoms: _35  and  _36
REMARK   17  A    between atoms: _35  and  _38
REMARK   18  A    between atoms: _38  and  _39
REMARK   19  A    between atoms: _42  and  _44
REMARK   20  A    between atoms: _44  and  _45
REMARK   21  A    between atoms: _44  and  _47
REMARK   22  A    between atoms: _47  and  _48
REMARK   23  A    between atoms: _50  and  _52
REMARK   24  A    between atoms: _52  and  _53
REMARK   25  A    between atoms: _52  and  _55
REMARK   26  A    between atoms: _55  and  _56
REMARK   27  A    between atoms: _61  and  _63
REMARK   28  A    between atoms: _63  and  _64
REMARK   29  A    between atoms: _66  and  _68
REMARK   30  A    between atoms: _68  and  _69
REMARK   31  A    between atoms: _68  and  _71
REMARK   32  A    between atoms: _71  and  _72
REMARK   33  A    between atoms: _75  and  _77
REMARK   34  A    between atoms: _77  and  _78
REMARK   35  A    between atoms: _77  and  _80
REMARK   36  A    between atoms: _80  and  _81
REMARK   37  A    between atoms: _81  and  _82
REMARK   38  A    between atoms: _82  and  _83
REMARK   39  A    between atoms: _92  and  _94
REMARK   40  A    between atoms: _94  and  _95
REMARK   41  A    between atoms: _94  and  _97
REMARK   42  A    between atoms: _97  and  _98
REMARK   43  A    between atoms: _98  and  _99
REMARK   44  A    between atoms: _102  and  _104
REMARK   45  A    between atoms: _104  and  _105
REMARK   46  A    between atoms: _104  and  _107
REMARK   47  A    between atoms: _107  and  _108
REMARK   48  A    between atoms: _113  and  _115
REMARK   49  A    between atoms: _115  and  _116
REMARK   50  A    between atoms: _115  and  _118
REMARK   51  A    between atoms: _118  and  _119
REMARK   52  A    between atoms: _122  and  _124
REMARK   53  A    between atoms: _124  and  _125
REMARK   54  A    between atoms: _124  and  _127
REMARK   55  A    between atoms: _127  and  _128
REMARK   56  A    between atoms: _134  and  _136
REMARK   57  A    between atoms: _136  and  _137
REMARK   58  A    between atoms: _136  and  _139
REMARK   59  A    between atoms: _139  and  _140
REMARK   60  A    between atoms: _145  and  _147
REMARK   61  A    between atoms: _147  and  _148
REMARK   62  A    between atoms: _147  and  _150
REMARK   63  A    between atoms: _150  and  _151
REMARK   64  A    between atoms: _157  and  _159
REMARK   65  A    between atoms: _159  and  _160
REMARK   66  A    between atoms: _159  and  _162
REMARK   67  A    between atoms: _165  and  _167
REMARK   68  A    between atoms: _167  and  _168
REMARK   69  A    between atoms: _167  and  _170
REMARK   70  A    between atoms: _170  and  _171
REMARK   71  A    between atoms: _176  and  _177
REMARK   72  A    between atoms: _179  and  _181
REMARK   73  A    between atoms: _181  and  _182
REMARK   74  A    between atoms: _181  and  _184
REMARK   75  A    between atoms: _184  and  _185
REMARK   76  A    between atoms: _188  and  _190
REMARK   77  A    between atoms: _190  and  _191
REMARK   78  A    between atoms: _190  and  _193
REMARK   79  A    between atoms: _193  and  _194
REMARK   80  A    between atoms: _197  and  _199
REMARK   81  A    between atoms: _199  and  _200
REMARK   82  A    between atoms: _199  and  _202
REMARK   83  A    between atoms: _202  and  _203
REMARK   84  A    between atoms: _208  and  _210
REMARK   85  A    between atoms: _210  and  _211
REMARK   86  A    between atoms: _210  and  _213
REMARK   87  A    between atoms: _213  and  _214
REMARK   88  A    between atoms: _220  and  _221
REMARK   89  A    between atoms: _226  and  _228
REMARK   90  A    between atoms: _228  and  _229
REMARK   91  A    between atoms: _231  and  _233
REMARK   92  A    between atoms: _233  and  _234
REMARK   93  A    between atoms: _238  and  _239
REMARK   94  A    between atoms: _244  and  _246
REMARK   95  A    between atoms: _246  and  _247
REMARK   96  A    between atoms: _249  and  _251
REMARK   97  A    between atoms: _251  and  _252
REMARK   98  A    between atoms: _251  and  _254
REMARK   99  A    between atoms: _254  and  _255
REMARK  100  A    between atoms: _255  and  _256
REMARK  101  A    between atoms: _258  and  _260
REMARK  102  A    between atoms: _260  and  _261
REMARK  103  A    between atoms: _260  and  _263
REMARK  104  A    between atoms: _263  and  _264
REMARK  105  A    between atoms: _266  and  _268
REMARK  106  A    between atoms: _268  and  _269
REMARK  107  A    between atoms: _268  and  _271
REMARK  108  A    between atoms: _271  and  _272
REMARK  109  A    between atoms: _277  and  _279
REMARK  110  A    between atoms: _279  and  _280
REMARK  111  A    between atoms: _282  and  _284
REMARK  112  A    between atoms: _284  and  _285
REMARK  113  A    between atoms: _284  and  _287
REMARK  114  A    between atoms: _287  and  _288
REMARK  115  A    between atoms: _293  and  _295
REMARK  116  A    between atoms: _295  and  _296
REMARK  117  A    between atoms: _299  and  _301
REMARK  118  A    between atoms: _301  and  _302
REMARK  119  A    between atoms: _301  and  _304
REMARK  120  A    between atoms: _304  and  _305
REMARK  121  A    between atoms: _310  and  _312
REMARK  122  A    between atoms: _312  and  _313
REMARK  123  A    between atoms: _312  and  _315
REMARK  124  A    between atoms: _315  and  _316
REMARK  125  A    between atoms: _319  and  _321
REMARK  126  A    between atoms: _321  and  _322
REMARK  127  A    between atoms: _325  and  _326
REMARK  128  A    between atoms: _331  and  _333
REMARK  129  A    between atoms: _333  and  _334
REMARK  130  A    between atoms: _333  and  _336
REMARK  131  A    between atoms: _336  and  _337
REMARK  132  A    between atoms: _340  and  _342
REMARK  133  A    between atoms: _342  and  _343
REMARK  134  A    between atoms: _345  and  _347
REMARK  135  A    between atoms: _347  and  _348
REMARK  136  A    between atoms: _347  and  _350
REMARK  137  A    between atoms: _350  and  _351
REMARK  138  A    between atoms: _351  and  _352
REMARK  139  A    between atoms: _357  and  _359
REMARK  140  A    between atoms: _359  and  _360
REMARK  141  A    between atoms: _359  and  _362
REMARK  142  A    between atoms: _362  and  _363
REMARK  143  A    between atoms: _366  and  _368
REMARK  144  A    between atoms: _368  and  _369
REMARK  145  A    between atoms: _371  and  _373
REMARK  146  A    between atoms: _373  and  _374
REMARK  147  A    between atoms: _373  and  _376
REMARK  148  A    between atoms: _376  and  _377
REMARK  149  A    between atoms: _380  and  _382
REMARK  150  A    between atoms: _382  and  _383
REMARK  151  A    between atoms: _385  and  _387
REMARK  152  A    between atoms: _387  and  _388
REMARK  153  A    between atoms: _387  and  _390
REMARK  154  A    between atoms: _392  and  _394
REMARK  155  A    between atoms: _394  and  _395
REMARK  156  A    between atoms: _394  and  _397
REMARK  157  A    between atoms: _397  and  _398
REMARK  158  A    between atoms: _401  and  _403
REMARK  159  A    between atoms: _403  and  _404
REMARK  160  A    between atoms: _403  and  _406
REMARK  161  A    between atoms: _406  and  _407
REMARK  162  A    between atoms: _407  and  _408
REMARK  163  A    between atoms: _413  and  _415
REMARK  164  A    between atoms: _415  and  _416
REMARK  165  A    between atoms: _415  and  _418
REMARK  166  A    between atoms: _418  and  _419
REMARK  167  A    between atoms: _419  and  _420
REMARK  168  A    between atoms: _423  and  _425
REMARK  169  A    between atoms: _425  and  _426
REMARK  170  A    between atoms: _425  and  _428
REMARK  171  A    between atoms: _428  and  _429
REMARK  172  A    between atoms: _432  and  _434
REMARK  173  A    between atoms: _434  and  _435
REMARK  174  A    between atoms: _434  and  _437
REMARK  175  A    between atoms: _437  and  _438
REMARK  176  A    between atoms: _443  and  _444
REMARK  177  A    between atoms: _446  and  _448
REMARK  178  A    between atoms: _448  and  _449
REMARK  179  A    between atoms: _448  and  _451
REMARK  180  A    between atoms: _451  and  _452
REMARK  181  A    between atoms: _455  and  _457
REMARK  182  A    between atoms: _457  and  _458
REMARK  183  A    between atoms: _457  and  _460
REMARK  184  A    between atoms: _460  and  _461
REMARK  185  A    between atoms: _464  and  _466
REMARK  186  A    between atoms: _470  and  _472
REMARK  187  A    between atoms: _477  and  _480
REMARK  188  A    between atoms: _480  and  _481
REMARK  189  A    between atoms: _481  and  _482
REMARK  190  A    between atoms: _482  and  _483
REMARK  191  A    between atoms: _483  and  _484
REMARK  192  A    between atoms: _490  and  _493
REMARK  193  A    between atoms: _491  and  _497
REMARK  194  A    between atoms: _493  and  _494
REMARK  195  A    between atoms: _497  and  _499
REMARK  196  A    between atoms: _499  and  _500
REMARK  197  A    between atoms: _499  and  _502
REMARK  198  A    between atoms: _502  and  _503
REMARK  199  A    between atoms: _506  and  _508
REMARK  200  A    between atoms: _508  and  _509
REMARK  201  A    between atoms: _508  and  _511
REMARK  202  A    between atoms: _511  and  _512
REMARK  203  A    between atoms: _515  and  _517
REMARK  204  A    between atoms: _517  and  _518
REMARK  205  A    between atoms: _517  and  _520
REMARK  206  A    between atoms: _520  and  _521
REMARK  207  A    between atoms: _524  and  _526
REMARK  208  A    between atoms: _526  and  _527
REMARK  209  A    between atoms: _529  and  _531
REMARK  210  A    between atoms: _531  and  _532
REMARK  211  A    between atoms: _531  and  _534
REMARK  212  A    between atoms: _534  and  _535
REMARK  213  A    between atoms: _538  and  _540
REMARK  214  A    between atoms: _540  and  _541
REMARK  215  A    between atoms: _540  and  _543
REMARK  216  A    between atoms: _543  and  _544
REMARK  217  A    between atoms: _550  and  _552
REMARK  218  A    between atoms: _552  and  _553
REMARK  219  A    between atoms: _552  and  _555
REMARK  220  A    between atoms: _555  and  _556
REMARK  221  A    between atoms: _559  and  _561
REMARK  222  A    between atoms: _561  and  _562
REMARK  223  A    between atoms: _561  and  _564
REMARK  224  A    between atoms: _564  and  _565
REMARK  225  A    between atoms: _568  and  _570
REMARK  226  A    between atoms: _570  and  _571
REMARK  227  A    between atoms: _573  and  _575
REMARK  228  A    between atoms: _575  and  _576
REMARK  229  A    between atoms: _575  and  _578
REMARK  230  A    between atoms: _578  and  _579
REMARK  231  A    between atoms: _581  and  _583
REMARK  232  A    between atoms: _583  and  _584
REMARK  233  A    between atoms: _583  and  _586
REMARK  234  A    between atoms: _586  and  _587
REMARK  235  A    between atoms: _592  and  _594
REMARK  236  A    between atoms: _594  and  _595
REMARK  237  A    between atoms: _594  and  _597
REMARK  238  A    between atoms: _600  and  _602
REMARK  239  A    between atoms: _602  and  _603
REMARK  240  A    between atoms: _602  and  _605
REMARK  241  A    between atoms: _605  and  _606
REMARK  242  A    between atoms: _611  and  _613
REMARK  243  A    between atoms: _613  and  _614
REMARK  244  A    between atoms: _616  and  _618
REMARK  245  A    between atoms: _618  and  _619
REMARK  246  A    between atoms: _618  and  _621
REMARK  247  A    between atoms: _621  and  _622
REMARK  248  A    between atoms: _627  and  _629
REMARK  249  A    between atoms: _629  and  _630
REMARK                            x       y       z     vdW  Elec       q    Type
REMARK                         _______ _______ _______ _____ _____    ______ ____
ROOT
ATOM      1  CA  GLY A   1       5.449  72.040  27.115  0.00  0.00    +0.000 C 
ENDROOT
BRANCH   1   2
ATOM      2  N   GLY A   1       4.530  70.907  27.329  0.00  0.00    +0.000 NA
ATOM      3  H   GLY A   1       4.697  70.030  26.795  0.00  0.00    +0.000 HD
ENDBRANCH   1   2
BRANCH   1   4
ATOM      4  C   GLY A   1       4.693  73.350  26.789  0.00  0.00    +0.000 C 
ATOM      5  O   GLY A   1       4.922  74.438  27.312  0.00  0.00    +0.000 OA
ENDBRANCH   1   4
TORSDOF 2
