REMARK  Name = ../refined-set-2016/1z1h/1z1h_pocket.pdb
REMARK  217 active torsions:
REMARK  status: ('A' for Active; 'I' for Inactive)
REMARK    1  A    between atoms: _1  and  _3
REMARK    2  A    between atoms: _3  and  _4
REMARK    3  A    between atoms: _3  and  _6
REMARK    4  A    between atoms: _6  and  _7
REMARK    5  A    between atoms: _7  and  _8
REMARK    6  A    between atoms: _8  and  _9
REMARK    7  A    between atoms: _18  and  _20
REMARK    8  A    between atoms: _20  and  _21
REMARK    9  A    between atoms: _20  and  _23
REMARK   10  A    between atoms: _23  and  _24
REMARK   11  A    between atoms: _27  and  _29
REMARK   12  A    between atoms: _29  and  _30
REMARK   13  A    between atoms: _29  and  _32
REMARK   14  A    between atoms: _32  and  _33
REMARK   15  A    between atoms: _36  and  _38
REMARK   16  A    between atoms: _38  and  _39
REMARK   17  A    between atoms: _38  and  _41
REMARK   18  A    between atoms: _41  and  _42
REMARK   19  A    between atoms: _45  and  _47
REMARK   20  A    between atoms: _47  and  _48
REMARK   21  A    between atoms: _47  and  _50
REMARK   22  A    between atoms: _50  and  _51
REMARK   23  A    between atoms: _54  and  _56
REMARK   24  A    between atoms: _56  and  _57
REMARK   25  A    between atoms: _59  and  _61
REMARK   26  A    between atoms: _61  and  _62
REMARK   27  A    between atoms: _65  and  _67
REMARK   28  A    between atoms: _67  and  _68
REMARK   29  A    between atoms: _67  and  _70
REMARK   30  A    between atoms: _70  and  _71
REMARK   31  A    between atoms: _74  and  _76
REMARK   32  A    between atoms: _76  and  _77
REMARK   33  A    between atoms: _76  and  _79
REMARK   34  A    between atoms: _79  and  _80
REMARK   35  A    between atoms: _83  and  _85
REMARK   36  A    between atoms: _85  and  _86
REMARK   37  A    between atoms: _85  and  _88
REMARK   38  A    between atoms: _88  and  _89
REMARK   39  A    between atoms: _92  and  _94
REMARK   40  A    between atoms: _94  and  _95
REMARK   41  A    between atoms: _94  and  _97
REMARK   42  A    between atoms: _100  and  _102
REMARK   43  A    between atoms: _102  and  _103
REMARK   44  A    between atoms: _102  and  _105
REMARK   45  A    between atoms: _105  and  _106
REMARK   46  A    between atoms: _109  and  _111
REMARK   47  A    between atoms: _111  and  _112
REMARK   48  A    between atoms: _114  and  _116
REMARK   49  A    between atoms: _116  and  _117
REMARK   50  A    between atoms: _119  and  _121
REMARK   51  A    between atoms: _121  and  _122
REMARK   52  A    between atoms: _121  and  _124
REMARK   53  A    between atoms: _124  and  _125
REMARK   54  A    between atoms: _128  and  _130
REMARK   55  A    between atoms: _130  and  _131
REMARK   56  A    between atoms: _133  and  _135
REMARK   57  A    between atoms: _135  and  _136
REMARK   58  A    between atoms: _138  and  _140
REMARK   59  A    between atoms: _140  and  _141
REMARK   60  A    between atoms: _140  and  _143
REMARK   61  A    between atoms: _143  and  _144
REMARK   62  A    between atoms: _150  and  _152
REMARK   63  A    between atoms: _152  and  _153
REMARK   64  A    between atoms: _152  and  _155
REMARK   65  A    between atoms: _155  and  _156
REMARK   66  A    between atoms: _159  and  _161
REMARK   67  A    between atoms: _161  and  _162
REMARK   68  A    between atoms: _161  and  _164
REMARK   69  A    between atoms: _164  and  _165
REMARK   70  A    between atoms: _168  and  _170
REMARK   71  A    between atoms: _170  and  _171
REMARK   72  A    between atoms: _170  and  _173
REMARK   73  A    between atoms: _173  and  _174
REMARK   74  A    between atoms: _178  and  _179
REMARK   75  A    between atoms: _184  and  _186
REMARK   76  A    between atoms: _186  and  _187
REMARK   77  A    between atoms: _186  and  _189
REMARK   78  A    between atoms: _192  and  _194
REMARK   79  A    between atoms: _194  and  _195
REMARK   80  A    between atoms: _194  and  _197
REMARK   81  A    between atoms: _197  and  _198
REMARK   82  A    between atoms: _203  and  _205
REMARK   83  A    between atoms: _205  and  _206
REMARK   84  A    between atoms: _205  and  _208
REMARK   85  A    between atoms: _208  and  _209
REMARK   86  A    between atoms: _212  and  _214
REMARK   87  A    between atoms: _214  and  _215
REMARK   88  A    between atoms: _214  and  _217
REMARK   89  A    between atoms: _217  and  _218
REMARK   90  A    between atoms: _221  and  _223
REMARK   91  A    between atoms: _223  and  _224
REMARK   92  A    between atoms: _226  and  _228
REMARK   93  A    between atoms: _228  and  _229
REMARK   94  A    between atoms: _228  and  _231
REMARK   95  A    between atoms: _231  and  _232
REMARK   96  A    between atoms: _232  and  _233
REMARK   97  A    between atoms: _233  and  _234
REMARK   98  A    between atoms: _243  and  _245
REMARK   99  A    between atoms: _245  and  _246
REMARK  100  A    between atoms: _245  and  _248
REMARK  101  A    between atoms: _248  and  _249
REMARK  102  A    between atoms: _254  and  _256
REMARK  103  A    between atoms: _256  and  _257
REMARK  104  A    between atoms: _256  and  _259
REMARK  105  A    between atoms: _259  and  _260
REMARK  106  A    between atoms: _260  and  _261
REMARK  107  A    between atoms: _261  and  _262
REMARK  108  A    between atoms: _271  and  _273
REMARK  109  A    between atoms: _273  and  _274
REMARK  110  A    between atoms: _273  and  _276
REMARK  111  A    between atoms: _276  and  _277
REMARK  112  A    between atoms: _280  and  _282
REMARK  113  A    between atoms: _282  and  _283
REMARK  114  A    between atoms: _282  and  _285
REMARK  115  A    between atoms: _285  and  _286
REMARK  116  A    between atoms: _289  and  _291
REMARK  117  A    between atoms: _291  and  _292
REMARK  118  A    between atoms: _291  and  _294
REMARK  119  A    between atoms: _294  and  _295
REMARK  120  A    between atoms: _298  and  _300
REMARK  121  A    between atoms: _300  and  _301
REMARK  122  A    between atoms: _300  and  _303
REMARK  123  A    between atoms: _303  and  _304
REMARK  124  A    between atoms: _307  and  _309
REMARK  125  A    between atoms: _309  and  _310
REMARK  126  A    between atoms: _312  and  _314
REMARK  127  A    between atoms: _314  and  _315
REMARK  128  A    between atoms: _318  and  _320
REMARK  129  A    between atoms: _320  and  _321
REMARK  130  A    between atoms: _320  and  _323
REMARK  131  A    between atoms: _323  and  _324
REMARK  132  A    between atoms: _327  and  _329
REMARK  133  A    between atoms: _329  and  _330
REMARK  134  A    between atoms: _329  and  _332
REMARK  135  A    between atoms: _332  and  _333
REMARK  136  A    between atoms: _336  and  _338
REMARK  137  A    between atoms: _338  and  _339
REMARK  138  A    between atoms: _338  and  _341
REMARK  139  A    between atoms: _341  and  _342
REMARK  140  A    between atoms: _345  and  _347
REMARK  141  A    between atoms: _347  and  _348
REMARK  142  A    between atoms: _347  and  _350
REMARK  143  A    between atoms: _353  and  _355
REMARK  144  A    between atoms: _355  and  _356
REMARK  145  A    between atoms: _355  and  _358
REMARK  146  A    between atoms: _358  and  _359
REMARK  147  A    between atoms: _359  and  _360
REMARK  148  A    between atoms: _360  and  _361
REMARK  149  A    between atoms: _361  and  _362
REMARK  150  A    between atoms: _366  and  _368
REMARK  151  A    between atoms: _368  and  _369
REMARK  152  A    between atoms: _368  and  _371
REMARK  153  A    between atoms: _371  and  _372
REMARK  154  A    between atoms: _372  and  _373
REMARK  155  A    between atoms: _375  and  _377
REMARK  156  A    between atoms: _377  and  _378
REMARK  157  A    between atoms: _377  and  _380
REMARK  158  A    between atoms: _380  and  _381
REMARK  159  A    between atoms: _384  and  _386
REMARK  160  A    between atoms: _386  and  _387
REMARK  161  A    between atoms: _389  and  _391
REMARK  162  A    between atoms: _391  and  _392
REMARK  163  A    between atoms: _394  and  _396
REMARK  164  A    between atoms: _396  and  _397
REMARK  165  A    between atoms: _396  and  _399
REMARK  166  A    between atoms: _399  and  _400
REMARK  167  A    between atoms: _403  and  _405
REMARK  168  A    between atoms: _405  and  _406
REMARK  169  A    between atoms: _408  and  _410
REMARK  170  A    between atoms: _410  and  _411
REMARK  171  A    between atoms: _413  and  _415
REMARK  172  A    between atoms: _415  and  _416
REMARK  173  A    between atoms: _415  and  _418
REMARK  174  A    between atoms: _418  and  _419
REMARK  175  A    between atoms: _425  and  _427
REMARK  176  A    between atoms: _427  and  _428
REMARK  177  A    between atoms: _427  and  _430
REMARK  178  A    between atoms: _430  and  _431
REMARK  179  A    between atoms: _434  and  _436
REMARK  180  A    between atoms: _436  and  _437
REMARK  181  A    between atoms: _436  and  _439
REMARK  182  A    between atoms: _442  and  _444
REMARK  183  A    between atoms: _444  and  _445
REMARK  184  A    between atoms: _444  and  _447
REMARK  185  A    between atoms: _447  and  _448
REMARK  186  A    between atoms: _451  and  _453
REMARK  187  A    between atoms: _453  and  _454
REMARK  188  A    between atoms: _453  and  _456
REMARK  189  A    between atoms: _456  and  _457
REMARK  190  A    between atoms: _461  and  _462
REMARK  191  A    between atoms: _467  and  _469
REMARK  192  A    between atoms: _469  and  _470
REMARK  193  A    between atoms: _469  and  _472
REMARK  194  A    between atoms: _475  and  _477
REMARK  195  A    between atoms: _477  and  _478
REMARK  196  A    between atoms: _477  and  _480
REMARK  197  A    between atoms: _480  and  _481
REMARK  198  A    between atoms: _486  and  _488
REMARK  199  A    between atoms: _488  and  _489
REMARK  200  A    between atoms: _488  and  _491
REMARK  201  A    between atoms: _491  and  _492
REMARK  202  A    between atoms: _495  and  _497
REMARK  203  A    between atoms: _497  and  _498
REMARK  204  A    between atoms: _497  and  _500
REMARK  205  A    between atoms: _500  and  _501
REMARK  206  A    between atoms: _504  and  _506
REMARK  207  A    between atoms: _506  and  _507
REMARK  208  A    between atoms: _509  and  _511
REMARK  209  A    between atoms: _511  and  _512
REMARK  210  A    between atoms: _511  and  _514
REMARK  211  A    between atoms: _514  and  _515
REMARK  212  A    between atoms: _515  and  _516
REMARK  213  A    between atoms: _516  and  _517
REMARK  214  A    between atoms: _526  and  _528
REMARK  215  A    between atoms: _528  and  _529
REMARK  216  A    between atoms: _528  and  _531
REMARK  217  A    between atoms: _531  and  _532
REMARK                            x       y       z     vdW  Elec       q    Type
REMARK                         _______ _______ _______ _____ _____    ______ ____
ROOT
ATOM      1  NE  ARG A   1       3.965  -7.639  23.073  0.00  0.00    -0.265 N 
ATOM      2  HE  ARG A   1       4.962  -7.755  23.346  0.00  0.00    +0.259 HD
ATOM      3  CZ  ARG A   1       3.592  -8.081  21.875  0.00  0.00    +0.342 C 
ATOM      4  NH2 ARG A   1       2.330  -7.954  21.479  0.00  0.00    -0.292 N 
ATOM      5 HH21 ARG A   1       1.631  -7.508  22.106  0.00  0.00    +0.255 HD
ATOM      6 HH22 ARG A   1       2.042  -8.301  20.542  0.00  0.00    +0.255 HD
ATOM      7  NH1 ARG A   1       4.482  -8.650  21.071  0.00  0.00    -0.292 N 
ATOM      8 HH11 ARG A   1       5.471  -8.750  21.378  0.00  0.00    +0.255 HD
ATOM      9 HH12 ARG A   1       4.191  -8.996  20.134  0.00  0.00    +0.255 HD
ENDROOT
BRANCH   1  10
ATOM     10  CD  ARG A   1       3.066  -7.002  24.029  0.00  0.00    +0.174 C 
BRANCH  10  11
ATOM     11  CG  ARG A   1       3.816  -6.233  25.096  0.00  0.00    +0.045 C 
BRANCH  11  12
ATOM     12  CB  ARG A   1       2.830  -5.477  25.947  0.00  0.00    +0.029 C 
BRANCH  12  13
ATOM     13  CA  ARG A   1       3.450  -4.520  26.974  0.00  0.00    +0.133 C 
BRANCH  13  14
ATOM     14  N   ARG A   1       4.015  -5.257  28.104  0.00  0.00    -0.239 NA
ATOM     15  H   ARG A   1       3.966  -6.296  28.126  0.00  0.00    +0.142 HD
ENDBRANCH  13  14
BRANCH  13  16
ATOM     16  C   ARG A   1       2.354  -3.597  27.521  0.00  0.00    +0.224 C 
ATOM     17  O   ARG A   1       1.575  -3.985  28.395  0.00  0.00    -0.287 OA
ENDBRANCH  13  16
ENDBRANCH  12  13
ENDBRANCH  11  12
ENDBRANCH  10  11
ENDBRANCH   1  10
TORSDOF 6
REMARK  Name = ../refined-set-2016/1z1h/1z1h_pocket.pdb
REMARK  217 active torsions:
REMARK  status: ('A' for Active; 'I' for Inactive)
REMARK    1  A    between atoms: _1  and  _3
REMARK    2  A    between atoms: _3  and  _4
REMARK    3  A    between atoms: _3  and  _6
REMARK    4  A    between atoms: _6  and  _7
REMARK    5  A    between atoms: _7  and  _8
REMARK    6  A    between atoms: _8  and  _9
REMARK    7  A    between atoms: _18  and  _20
REMARK    8  A    between atoms: _20  and  _21
REMARK    9  A    between atoms: _20  and  _23
REMARK   10  A    between atoms: _23  and  _24
REMARK   11  A    between atoms: _27  and  _29
REMARK   12  A    between atoms: _29  and  _30
REMARK   13  A    between atoms: _29  and  _32
REMARK   14  A    between atoms: _32  and  _33
REMARK   15  A    between atoms: _36  and  _38
REMARK   16  A    between atoms: _38  and  _39
REMARK   17  A    between atoms: _38  and  _41
REMARK   18  A    between atoms: _41  and  _42
REMARK   19  A    between atoms: _45  and  _47
REMARK   20  A    between atoms: _47  and  _48
REMARK   21  A    between atoms: _47  and  _50
REMARK   22  A    between atoms: _50  and  _51
REMARK   23  A    between atoms: _54  and  _56
REMARK   24  A    between atoms: _56  and  _57
REMARK   25  A    between atoms: _59  and  _61
REMARK   26  A    between atoms: _61  and  _62
REMARK   27  A    between atoms: _65  and  _67
REMARK   28  A    between atoms: _67  and  _68
REMARK   29  A    between atoms: _67  and  _70
REMARK   30  A    between atoms: _70  and  _71
REMARK   31  A    between atoms: _74  and  _76
REMARK   32  A    between atoms: _76  and  _77
REMARK   33  A    between atoms: _76  and  _79
REMARK   34  A    between atoms: _79  and  _80
REMARK   35  A    between atoms: _83  and  _85
REMARK   36  A    between atoms: _85  and  _86
REMARK   37  A    between atoms: _85  and  _88
REMARK   38  A    between atoms: _88  and  _89
REMARK   39  A    between atoms: _92  and  _94
REMARK   40  A    between atoms: _94  and  _95
REMARK   41  A    between atoms: _94  and  _97
REMARK   42  A    between atoms: _100  and  _102
REMARK   43  A    between atoms: _102  and  _103
REMARK   44  A    between atoms: _102  and  _105
REMARK   45  A    between atoms: _105  and  _106
REMARK   46  A    between atoms: _109  and  _111
REMARK   47  A    between atoms: _111  and  _112
REMARK   48  A    between atoms: _114  and  _116
REMARK   49  A    between atoms: _116  and  _117
REMARK   50  A    between atoms: _119  and  _121
REMARK   51  A    between atoms: _121  and  _122
REMARK   52  A    between atoms: _121  and  _124
REMARK   53  A    between atoms: _124  and  _125
REMARK   54  A    between atoms: _128  and  _130
REMARK   55  A    between atoms: _130  and  _131
REMARK   56  A    between atoms: _133  and  _135
REMARK   57  A    between atoms: _135  and  _136
REMARK   58  A    between atoms: _138  and  _140
REMARK   59  A    between atoms: _140  and  _141
REMARK   60  A    between atoms: _140  and  _143
REMARK   61  A    between atoms: _143  and  _144
REMARK   62  A    between atoms: _150  and  _152
REMARK   63  A    between atoms: _152  and  _153
REMARK   64  A    between atoms: _152  and  _155
REMARK   65  A    between atoms: _155  and  _156
REMARK   66  A    between atoms: _159  and  _161
REMARK   67  A    between atoms: _161  and  _162
REMARK   68  A    between atoms: _161  and  _164
REMARK   69  A    between atoms: _164  and  _165
REMARK   70  A    between atoms: _168  and  _170
REMARK   71  A    between atoms: _170  and  _171
REMARK   72  A    between atoms: _170  and  _173
REMARK   73  A    between atoms: _173  and  _174
REMARK   74  A    between atoms: _178  and  _179
REMARK   75  A    between atoms: _184  and  _186
REMARK   76  A    between atoms: _186  and  _187
REMARK   77  A    between atoms: _186  and  _189
REMARK   78  A    between atoms: _192  and  _194
REMARK   79  A    between atoms: _194  and  _195
REMARK   80  A    between atoms: _194  and  _197
REMARK   81  A    between atoms: _197  and  _198
REMARK   82  A    between atoms: _203  and  _205
REMARK   83  A    between atoms: _205  and  _206
REMARK   84  A    between atoms: _205  and  _208
REMARK   85  A    between atoms: _208  and  _209
REMARK   86  A    between atoms: _212  and  _214
REMARK   87  A    between atoms: _214  and  _215
REMARK   88  A    between atoms: _214  and  _217
REMARK   89  A    between atoms: _217  and  _218
REMARK   90  A    between atoms: _221  and  _223
REMARK   91  A    between atoms: _223  and  _224
REMARK   92  A    between atoms: _226  and  _228
REMARK   93  A    between atoms: _228  and  _229
REMARK   94  A    between atoms: _228  and  _231
REMARK   95  A    between atoms: _231  and  _232
REMARK   96  A    between atoms: _232  and  _233
REMARK   97  A    between atoms: _233  and  _234
REMARK   98  A    between atoms: _243  and  _245
REMARK   99  A    between atoms: _245  and  _246
REMARK  100  A    between atoms: _245  and  _248
REMARK  101  A    between atoms: _248  and  _249
REMARK  102  A    between atoms: _254  and  _256
REMARK  103  A    between atoms: _256  and  _257
REMARK  104  A    between atoms: _256  and  _259
REMARK  105  A    between atoms: _259  and  _260
REMARK  106  A    between atoms: _260  and  _261
REMARK  107  A    between atoms: _261  and  _262
REMARK  108  A    between atoms: _271  and  _273
REMARK  109  A    between atoms: _273  and  _274
REMARK  110  A    between atoms: _273  and  _276
REMARK  111  A    between atoms: _276  and  _277
REMARK  112  A    between atoms: _280  and  _282
REMARK  113  A    between atoms: _282  and  _283
REMARK  114  A    between atoms: _282  and  _285
REMARK  115  A    between atoms: _285  and  _286
REMARK  116  A    between atoms: _289  and  _291
REMARK  117  A    between atoms: _291  and  _292
REMARK  118  A    between atoms: _291  and  _294
REMARK  119  A    between atoms: _294  and  _295
REMARK  120  A    between atoms: _298  and  _300
REMARK  121  A    between atoms: _300  and  _301
REMARK  122  A    between atoms: _300  and  _303
REMARK  123  A    between atoms: _303  and  _304
REMARK  124  A    between atoms: _307  and  _309
REMARK  125  A    between atoms: _309  and  _310
REMARK  126  A    between atoms: _312  and  _314
REMARK  127  A    between atoms: _314  and  _315
REMARK  128  A    between atoms: _318  and  _320
REMARK  129  A    between atoms: _320  and  _321
REMARK  130  A    between atoms: _320  and  _323
REMARK  131  A    between atoms: _323  and  _324
REMARK  132  A    between atoms: _327  and  _329
REMARK  133  A    between atoms: _329  and  _330
REMARK  134  A    between atoms: _329  and  _332
REMARK  135  A    between atoms: _332  and  _333
REMARK  136  A    between atoms: _336  and  _338
REMARK  137  A    between atoms: _338  and  _339
REMARK  138  A    between atoms: _338  and  _341
REMARK  139  A    between atoms: _341  and  _342
REMARK  140  A    between atoms: _345  and  _347
REMARK  141  A    between atoms: _347  and  _348
REMARK  142  A    between atoms: _347  and  _350
REMARK  143  A    between atoms: _353  and  _355
REMARK  144  A    between atoms: _355  and  _356
REMARK  145  A    between atoms: _355  and  _358
REMARK  146  A    between atoms: _358  and  _359
REMARK  147  A    between atoms: _359  and  _360
REMARK  148  A    between atoms: _360  and  _361
REMARK  149  A    between atoms: _361  and  _362
REMARK  150  A    between atoms: _366  and  _368
REMARK  151  A    between atoms: _368  and  _369
REMARK  152  A    between atoms: _368  and  _371
REMARK  153  A    between atoms: _371  and  _372
REMARK  154  A    between atoms: _372  and  _373
REMARK  155  A    between atoms: _375  and  _377
REMARK  156  A    between atoms: _377  and  _378
REMARK  157  A    between atoms: _377  and  _380
REMARK  158  A    between atoms: _380  and  _381
REMARK  159  A    between atoms: _384  and  _386
REMARK  160  A    between atoms: _386  and  _387
REMARK  161  A    between atoms: _389  and  _391
REMARK  162  A    between atoms: _391  and  _392
REMARK  163  A    between atoms: _394  and  _396
REMARK  164  A    between atoms: _396  and  _397
REMARK  165  A    between atoms: _396  and  _399
REMARK  166  A    between atoms: _399  and  _400
REMARK  167  A    between atoms: _403  and  _405
REMARK  168  A    between atoms: _405  and  _406
REMARK  169  A    between atoms: _408  and  _410
REMARK  170  A    between atoms: _410  and  _411
REMARK  171  A    between atoms: _413  and  _415
REMARK  172  A    between atoms: _415  and  _416
REMARK  173  A    between atoms: _415  and  _418
REMARK  174  A    between atoms: _418  and  _419
REMARK  175  A    between atoms: _425  and  _427
REMARK  176  A    between atoms: _427  and  _428
REMARK  177  A    between atoms: _427  and  _430
REMARK  178  A    between atoms: _430  and  _431
REMARK  179  A    between atoms: _434  and  _436
REMARK  180  A    between atoms: _436  and  _437
REMARK  181  A    between atoms: _436  and  _439
REMARK  182  A    between atoms: _442  and  _444
REMARK  183  A    between atoms: _444  and  _445
REMARK  184  A    between atoms: _444  and  _447
REMARK  185  A    between atoms: _447  and  _448
REMARK  186  A    between atoms: _451  and  _453
REMARK  187  A    between atoms: _453  and  _454
REMARK  188  A    between atoms: _453  and  _456
REMARK  189  A    between atoms: _456  and  _457
REMARK  190  A    between atoms: _461  and  _462
REMARK  191  A    between atoms: _467  and  _469
REMARK  192  A    between atoms: _469  and  _470
REMARK  193  A    between atoms: _469  and  _472
REMARK  194  A    between atoms: _475  and  _477
REMARK  195  A    between atoms: _477  and  _478
REMARK  196  A    between atoms: _477  and  _480
REMARK  197  A    between atoms: _480  and  _481
REMARK  198  A    between atoms: _486  and  _488
REMARK  199  A    between atoms: _488  and  _489
REMARK  200  A    between atoms: _488  and  _491
REMARK  201  A    between atoms: _491  and  _492
REMARK  202  A    between atoms: _495  and  _497
REMARK  203  A    between atoms: _497  and  _498
REMARK  204  A    between atoms: _497  and  _500
REMARK  205  A    between atoms: _500  and  _501
REMARK  206  A    between atoms: _504  and  _506
REMARK  207  A    between atoms: _506  and  _507
REMARK  208  A    between atoms: _509  and  _511
REMARK  209  A    between atoms: _511  and  _512
REMARK  210  A    between atoms: _511  and  _514
REMARK  211  A    between atoms: _514  and  _515
REMARK  212  A    between atoms: _515  and  _516
REMARK  213  A    between atoms: _516  and  _517
REMARK  214  A    between atoms: _526  and  _528
REMARK  215  A    between atoms: _528  and  _529
REMARK  216  A    between atoms: _528  and  _531
REMARK  217  A    between atoms: _531  and  _532
REMARK                            x       y       z     vdW  Elec       q    Type
REMARK                         _______ _______ _______ _____ _____    ______ ____
ROOT
ATOM      1  C   GLY A   5       4.613   4.006  16.080  0.00  0.00    +0.243 C 
ATOM      2  N   ALA A   6       3.318   4.120  16.329  0.00  0.00    -0.297 N 
ATOM      3  H   ALA A   6       2.994   4.321  17.296  0.00  0.00    +0.150 HD
ATOM      4  O   GLY A   5       5.045   3.799  14.937  0.00  0.00    -0.273 OA
ENDROOT
BRANCH   2   5
ATOM      5  CA  ALA A   6       2.341   3.965  15.254  0.00  0.00    +0.149 C 
ATOM      6  CB  ALA A   6       1.239   3.031  15.709  0.00  0.00    +0.031 C 
BRANCH   5   7
ATOM      7  C   ALA A   6       1.738   5.322  14.886  0.00  0.00    +0.241 C 
ATOM      8  O   ALA A   6       1.276   6.044  15.763  0.00  0.00    -0.273 OA
ATOM      9  N   ASP A   7       1.730   5.679  13.607  0.00  0.00    -0.297 N 
ATOM     10  H   ASP A   7       2.130   5.050  12.882  0.00  0.00    +0.150 HD
BRANCH   9  11
ATOM     11  CA  ASP A   7       1.152   6.966  13.231  0.00  0.00    +0.160 C 
BRANCH  11  12
ATOM     12  C   ASP A   7      -0.361   6.867  13.345  0.00  0.00    +0.241 C 
ATOM     13  O   ASP A   7      -1.024   7.809  13.761  0.00  0.00    -0.273 OA
ATOM     14  N   ASP A   8      -0.886   5.709  12.973  0.00  0.00    -0.297 N 
ATOM     15  H   ASP A   8      -0.250   4.944  12.670  0.00  0.00    +0.150 HD
BRANCH  14  16
ATOM     16  CA  ASP A   8      -2.317   5.471  12.973  0.00  0.00    +0.160 C 
BRANCH  16  17
ATOM     17  C   ASP A   8      -2.727   4.332  13.897  0.00  0.00    +0.241 C 
ATOM     18  O   ASP A   8      -1.898   3.564  14.389  0.00  0.00    -0.273 OA
ATOM     19  N   THR A   9      -4.034   4.238  14.094  0.00  0.00    -0.295 N 
ATOM     20  H   THR A   9      -4.645   4.931  13.617  0.00  0.00    +0.150 HD
BRANCH  19  21
ATOM     21  CA  THR A   9      -4.675   3.234  14.931  0.00  0.00    +0.176 C 
BRANCH  21  22
ATOM     22  C   THR A   9      -5.167   2.133  13.975  0.00  0.00    +0.243 C 
ATOM     23  N   VAL A  10      -4.781   0.888  14.246  0.00  0.00    -0.298 N 
ATOM     24  H   VAL A  10      -4.195   0.708  15.086  0.00  0.00    +0.150 HD
ATOM     25  O   THR A   9      -5.860   2.414  12.989  0.00  0.00    -0.273 OA
BRANCH  23  26
ATOM     26  CA  VAL A  10      -5.165  -0.234  13.385  0.00  0.00    +0.137 C 
BRANCH  26  27
ATOM     27  CB  VAL A  10      -3.941  -0.819  12.632  0.00  0.00    +0.026 C 
ATOM     28  CG2 VAL A  10      -3.172   0.276  11.947  0.00  0.00    +0.002 C 
ATOM     29  CG1 VAL A  10      -4.403  -1.847  11.606  0.00  0.00    +0.002 C 
ENDBRANCH  26  27
BRANCH  26  30
ATOM     30  C   VAL A  10      -5.768  -1.318  14.261  0.00  0.00    +0.227 C 
ATOM     31  O   VAL A  10      -5.122  -1.794  15.178  0.00  0.00    -0.286 OA
ENDBRANCH  26  30
ENDBRANCH  23  26
ENDBRANCH  21  22
BRANCH  21  32
ATOM     32  CB  THR A   9      -5.852   3.903  15.688  0.00  0.00    +0.137 C 
ATOM     33  CG2 THR A   9      -6.751   2.873  16.360  0.00  0.00    +0.034 C 
BRANCH  32  34
ATOM     34  OG1 THR A   9      -5.319   4.821  16.656  0.00  0.00    -0.382 OA
ATOM     35  HG1 THR A   9      -4.782   5.512  16.193  0.00  0.00    +0.210 HD
ENDBRANCH  32  34
ENDBRANCH  21  32
ENDBRANCH  19  21
ENDBRANCH  16  17
BRANCH  16  36
ATOM     36  CB  ASP A   8      -2.781   5.139  11.551  0.00  0.00    +0.143 C 
BRANCH  36  37
ATOM     37  CG  ASP A   8      -2.242   6.114  10.514  0.00  0.00    +0.367 C 
ATOM     38  OD2 ASP A   8      -2.476   7.334  10.655  0.00  0.00    -0.246 OA
ATOM     39  OD1 ASP A   8      -1.577   5.647   9.565  0.00  0.00    -0.246 OA
ENDBRANCH  36  37
ENDBRANCH  16  36
ENDBRANCH  14  16
ENDBRANCH  11  12
BRANCH  11  40
ATOM     40  CB  ASP A   7       1.459   7.355  11.783  0.00  0.00    +0.143 C 
BRANCH  40  41
ATOM     41  CG  ASP A   7       2.935   7.596  11.518  0.00  0.00    +0.367 C 
ATOM     42  OD2 ASP A   7       3.705   7.841  12.463  0.00  0.00    -0.246 OA
ATOM     43  OD1 ASP A   7       3.312   7.557  10.326  0.00  0.00    -0.246 OA
ENDBRANCH  40  41
ENDBRANCH  11  40
ENDBRANCH   9  11
ENDBRANCH   5   7
ENDBRANCH   2   5
BRANCH   1  44
ATOM     44  CA  GLY A   5       5.559   4.159  17.260  0.00  0.00    +0.176 C 
BRANCH  44  46
ATOM     45  C   THR A   4       4.584   5.564  18.995  0.00  0.00    +0.243 C 
ATOM     46  N   GLY A   5       4.905   4.345  18.553  0.00  0.00    -0.295 N 
ATOM     47  H   GLY A   5       4.686   3.514  19.139  0.00  0.00    +0.150 HD
ATOM     48  O   THR A   4       4.796   6.594  18.357  0.00  0.00    -0.273 OA
BRANCH  45  49
ATOM     49  CA  THR A   4       3.891   5.629  20.341  0.00  0.00    +0.176 C 
BRANCH  49  51
ATOM     50  C   ASP A   3       2.388   3.772  20.073  0.00  0.00    +0.241 C 
ATOM     51  N   THR A   4       3.388   4.338  20.732  0.00  0.00    -0.295 N 
ATOM     52  H   THR A   4       3.815   3.844  21.541  0.00  0.00    +0.150 HD
ATOM     53  O   ASP A   3       1.864   4.287  19.081  0.00  0.00    -0.273 OA
BRANCH  50  54
ATOM     54  CA  ASP A   3       1.943   2.405  20.593  0.00  0.00    +0.160 C 
BRANCH  54  57
ATOM     55  C   LEU A   2       0.730   2.031  22.684  0.00  0.00    +0.241 C 
ATOM     56  O   LEU A   2       1.765   1.724  23.290  0.00  0.00    -0.273 OA
ATOM     57  N   ASP A   3       0.740   2.429  21.423  0.00  0.00    -0.297 N 
ATOM     58  H   ASP A   3      -0.147   2.774  21.003  0.00  0.00    +0.150 HD
BRANCH  55  59
ATOM     59  CA  LEU A   2      -0.654   1.967  23.356  0.00  0.00    +0.149 C 
BRANCH  59  61
ATOM     60  C   LEU A   1      -1.325  -0.221  22.435  0.00  0.00    +0.238 C 
ATOM     61  N   LEU A   2      -0.898   0.510  23.474  0.00  0.00    -0.297 N 
ATOM     62  H   LEU A   2      -0.733   0.042  24.388  0.00  0.00    +0.150 HD
ATOM     63  O   LEU A   1      -1.638   0.274  21.348  0.00  0.00    -0.274 OA
BRANCH  60  64
ATOM     64  CA  LEU A   1      -1.463  -1.735  22.636  0.00  0.00    +0.145 C 
BRANCH  64  65
ATOM     65  N   LEU A   1      -2.783  -2.187  22.246  0.00  0.00    -0.238 NA
ATOM     66  H   LEU A   1      -2.940  -2.465  21.256  0.00  0.00    +0.142 HD
ENDBRANCH  64  65
BRANCH  64  67
ATOM     67  CB  LEU A   1      -0.450  -2.464  21.757  0.00  0.00    +0.026 C 
BRANCH  67  68
ATOM     68  CG  LEU A   1       1.035  -2.474  22.068  0.00  0.00    +0.002 C 
ATOM     69  CD2 LEU A   1       1.269  -3.142  23.420  0.00  0.00    +0.000 C 
ATOM     70  CD1 LEU A   1       1.742  -3.260  20.953  0.00  0.00    +0.000 C 
ENDBRANCH  67  68
ENDBRANCH  64  67
ENDBRANCH  60  64
ENDBRANCH  59  61
BRANCH  59  71
ATOM     71  CB  LEU A   2      -0.625   2.624  24.740  0.00  0.00    +0.029 C 
BRANCH  71  72
ATOM     72  CG  LEU A   2      -1.912   2.461  25.546  0.00  0.00    +0.002 C 
ATOM     73  CD2 LEU A   2      -1.808   3.241  26.849  0.00  0.00    +0.000 C 
ATOM     74  CD1 LEU A   2      -3.089   2.952  24.712  0.00  0.00    +0.000 C 
ENDBRANCH  71  72
ENDBRANCH  59  71
ENDBRANCH  55  59
ENDBRANCH  54  57
BRANCH  54  75
ATOM     75  CB  ASP A   3       1.633   1.452  19.424  0.00  0.00    +0.143 C 
BRANCH  75  76
ATOM     76  CG  ASP A   3       2.814   1.190  18.517  0.00  0.00    +0.367 C 
ATOM     77  OD2 ASP A   3       3.917   1.730  18.728  0.00  0.00    -0.246 OA
ATOM     78  OD1 ASP A   3       2.610   0.407  17.576  0.00  0.00    -0.246 OA
ENDBRANCH  75  76
ENDBRANCH  54  75
ENDBRANCH  50  54
ENDBRANCH  49  51
BRANCH  49  79
ATOM     79  CB  THR A   4       4.856   6.177  21.396  0.00  0.00    +0.137 C 
ATOM     80  CG2 THR A   4       4.098   6.402  22.703  0.00  0.00    +0.034 C 
BRANCH  79  81
ATOM     81  OG1 THR A   4       5.949   5.258  21.590  0.00  0.00    -0.382 OA
ATOM     82  HG1 THR A   4       6.434   5.139  20.735  0.00  0.00    +0.210 HD
ENDBRANCH  79  81
ENDBRANCH  49  79
ENDBRANCH  45  49
ENDBRANCH  44  46
ENDBRANCH   1  44
TORSDOF 35
REMARK  Name = ../refined-set-2016/1z1h/1z1h_pocket.pdb
REMARK  217 active torsions:
REMARK  status: ('A' for Active; 'I' for Inactive)
REMARK    1  A    between atoms: _1  and  _3
REMARK    2  A    between atoms: _3  and  _4
REMARK    3  A    between atoms: _3  and  _6
REMARK    4  A    between atoms: _6  and  _7
REMARK    5  A    between atoms: _7  and  _8
REMARK    6  A    between atoms: _8  and  _9
REMARK    7  A    between atoms: _18  and  _20
REMARK    8  A    between atoms: _20  and  _21
REMARK    9  A    between atoms: _20  and  _23
REMARK   10  A    between atoms: _23  and  _24
REMARK   11  A    between atoms: _27  and  _29
REMARK   12  A    between atoms: _29  and  _30
REMARK   13  A    between atoms: _29  and  _32
REMARK   14  A    between atoms: _32  and  _33
REMARK   15  A    between atoms: _36  and  _38
REMARK   16  A    between atoms: _38  and  _39
REMARK   17  A    between atoms: _38  and  _41
REMARK   18  A    between atoms: _41  and  _42
REMARK   19  A    between atoms: _45  and  _47
REMARK   20  A    between atoms: _47  and  _48
REMARK   21  A    between atoms: _47  and  _50
REMARK   22  A    between atoms: _50  and  _51
REMARK   23  A    between atoms: _54  and  _56
REMARK   24  A    between atoms: _56  and  _57
REMARK   25  A    between atoms: _59  and  _61
REMARK   26  A    between atoms: _61  and  _62
REMARK   27  A    between atoms: _65  and  _67
REMARK   28  A    between atoms: _67  and  _68
REMARK   29  A    between atoms: _67  and  _70
REMARK   30  A    between atoms: _70  and  _71
REMARK   31  A    between atoms: _74  and  _76
REMARK   32  A    between atoms: _76  and  _77
REMARK   33  A    between atoms: _76  and  _79
REMARK   34  A    between atoms: _79  and  _80
REMARK   35  A    between atoms: _83  and  _85
REMARK   36  A    between atoms: _85  and  _86
REMARK   37  A    between atoms: _85  and  _88
REMARK   38  A    between atoms: _88  and  _89
REMARK   39  A    between atoms: _92  and  _94
REMARK   40  A    between atoms: _94  and  _95
REMARK   41  A    between atoms: _94  and  _97
REMARK   42  A    between atoms: _100  and  _102
REMARK   43  A    between atoms: _102  and  _103
REMARK   44  A    between atoms: _102  and  _105
REMARK   45  A    between atoms: _105  and  _106
REMARK   46  A    between atoms: _109  and  _111
REMARK   47  A    between atoms: _111  and  _112
REMARK   48  A    between atoms: _114  and  _116
REMARK   49  A    between atoms: _116  and  _117
REMARK   50  A    between atoms: _119  and  _121
REMARK   51  A    between atoms: _121  and  _122
REMARK   52  A    between atoms: _121  and  _124
REMARK   53  A    between atoms: _124  and  _125
REMARK   54  A    between atoms: _128  and  _130
REMARK   55  A    between atoms: _130  and  _131
REMARK   56  A    between atoms: _133  and  _135
REMARK   57  A    between atoms: _135  and  _136
REMARK   58  A    between atoms: _138  and  _140
REMARK   59  A    between atoms: _140  and  _141
REMARK   60  A    between atoms: _140  and  _143
REMARK   61  A    between atoms: _143  and  _144
REMARK   62  A    between atoms: _150  and  _152
REMARK   63  A    between atoms: _152  and  _153
REMARK   64  A    between atoms: _152  and  _155
REMARK   65  A    between atoms: _155  and  _156
REMARK   66  A    between atoms: _159  and  _161
REMARK   67  A    between atoms: _161  and  _162
REMARK   68  A    between atoms: _161  and  _164
REMARK   69  A    between atoms: _164  and  _165
REMARK   70  A    between atoms: _168  and  _170
REMARK   71  A    between atoms: _170  and  _171
REMARK   72  A    between atoms: _170  and  _173
REMARK   73  A    between atoms: _173  and  _174
REMARK   74  A    between atoms: _178  and  _179
REMARK   75  A    between atoms: _184  and  _186
REMARK   76  A    between atoms: _186  and  _187
REMARK   77  A    between atoms: _186  and  _189
REMARK   78  A    between atoms: _192  and  _194
REMARK   79  A    between atoms: _194  and  _195
REMARK   80  A    between atoms: _194  and  _197
REMARK   81  A    between atoms: _197  and  _198
REMARK   82  A    between atoms: _203  and  _205
REMARK   83  A    between atoms: _205  and  _206
REMARK   84  A    between atoms: _205  and  _208
REMARK   85  A    between atoms: _208  and  _209
REMARK   86  A    between atoms: _212  and  _214
REMARK   87  A    between atoms: _214  and  _215
REMARK   88  A    between atoms: _214  and  _217
REMARK   89  A    between atoms: _217  and  _218
REMARK   90  A    between atoms: _221  and  _223
REMARK   91  A    between atoms: _223  and  _224
REMARK   92  A    between atoms: _226  and  _228
REMARK   93  A    between atoms: _228  and  _229
REMARK   94  A    between atoms: _228  and  _231
REMARK   95  A    between atoms: _231  and  _232
REMARK   96  A    between atoms: _232  and  _233
REMARK   97  A    between atoms: _233  and  _234
REMARK   98  A    between atoms: _243  and  _245
REMARK   99  A    between atoms: _245  and  _246
REMARK  100  A    between atoms: _245  and  _248
REMARK  101  A    between atoms: _248  and  _249
REMARK  102  A    between atoms: _254  and  _256
REMARK  103  A    between atoms: _256  and  _257
REMARK  104  A    between atoms: _256  and  _259
REMARK  105  A    between atoms: _259  and  _260
REMARK  106  A    between atoms: _260  and  _261
REMARK  107  A    between atoms: _261  and  _262
REMARK  108  A    between atoms: _271  and  _273
REMARK  109  A    between atoms: _273  and  _274
REMARK  110  A    between atoms: _273  and  _276
REMARK  111  A    between atoms: _276  and  _277
REMARK  112  A    between atoms: _280  and  _282
REMARK  113  A    between atoms: _282  and  _283
REMARK  114  A    between atoms: _282  and  _285
REMARK  115  A    between atoms: _285  and  _286
REMARK  116  A    between atoms: _289  and  _291
REMARK  117  A    between atoms: _291  and  _292
REMARK  118  A    between atoms: _291  and  _294
REMARK  119  A    between atoms: _294  and  _295
REMARK  120  A    between atoms: _298  and  _300
REMARK  121  A    between atoms: _300  and  _301
REMARK  122  A    between atoms: _300  and  _303
REMARK  123  A    between atoms: _303  and  _304
REMARK  124  A    between atoms: _307  and  _309
REMARK  125  A    between atoms: _309  and  _310
REMARK  126  A    between atoms: _312  and  _314
REMARK  127  A    between atoms: _314  and  _315
REMARK  128  A    between atoms: _318  and  _320
REMARK  129  A    between atoms: _320  and  _321
REMARK  130  A    between atoms: _320  and  _323
REMARK  131  A    between atoms: _323  and  _324
REMARK  132  A    between atoms: _327  and  _329
REMARK  133  A    between atoms: _329  and  _330
REMARK  134  A    between atoms: _329  and  _332
REMARK  135  A    between atoms: _332  and  _333
REMARK  136  A    between atoms: _336  and  _338
REMARK  137  A    between atoms: _338  and  _339
REMARK  138  A    between atoms: _338  and  _341
REMARK  139  A    between atoms: _341  and  _342
REMARK  140  A    between atoms: _345  and  _347
REMARK  141  A    between atoms: _347  and  _348
REMARK  142  A    between atoms: _347  and  _350
REMARK  143  A    between atoms: _353  and  _355
REMARK  144  A    between atoms: _355  and  _356
REMARK  145  A    between atoms: _355  and  _358
REMARK  146  A    between atoms: _358  and  _359
REMARK  147  A    between atoms: _359  and  _360
REMARK  148  A    between atoms: _360  and  _361
REMARK  149  A    between atoms: _361  and  _362
REMARK  150  A    between atoms: _366  and  _368
REMARK  151  A    between atoms: _368  and  _369
REMARK  152  A    between atoms: _368  and  _371
REMARK  153  A    between atoms: _371  and  _372
REMARK  154  A    between atoms: _372  and  _373
REMARK  155  A    between atoms: _375  and  _377
REMARK  156  A    between atoms: _377  and  _378
REMARK  157  A    between atoms: _377  and  _380
REMARK  158  A    between atoms: _380  and  _381
REMARK  159  A    between atoms: _384  and  _386
REMARK  160  A    between atoms: _386  and  _387
REMARK  161  A    between atoms: _389  and  _391
REMARK  162  A    between atoms: _391  and  _392
REMARK  163  A    between atoms: _394  and  _396
REMARK  164  A    between atoms: _396  and  _397
REMARK  165  A    between atoms: _396  and  _399
REMARK  166  A    between atoms: _399  and  _400
REMARK  167  A    between atoms: _403  and  _405
REMARK  168  A    between atoms: _405  and  _406
REMARK  169  A    between atoms: _408  and  _410
REMARK  170  A    between atoms: _410  and  _411
REMARK  171  A    between atoms: _413  and  _415
REMARK  172  A    between atoms: _415  and  _416
REMARK  173  A    between atoms: _415  and  _418
REMARK  174  A    between atoms: _418  and  _419
REMARK  175  A    between atoms: _425  and  _427
REMARK  176  A    between atoms: _427  and  _428
REMARK  177  A    between atoms: _427  and  _430
REMARK  178  A    between atoms: _430  and  _431
REMARK  179  A    between atoms: _434  and  _436
REMARK  180  A    between atoms: _436  and  _437
REMARK  181  A    between atoms: _436  and  _439
REMARK  182  A    between atoms: _442  and  _444
REMARK  183  A    between atoms: _444  and  _445
REMARK  184  A    between atoms: _444  and  _447
REMARK  185  A    between atoms: _447  and  _448
REMARK  186  A    between atoms: _451  and  _453
REMARK  187  A    between atoms: _453  and  _454
REMARK  188  A    between atoms: _453  and  _456
REMARK  189  A    between atoms: _456  and  _457
REMARK  190  A    between atoms: _461  and  _462
REMARK  191  A    between atoms: _467  and  _469
REMARK  192  A    between atoms: _469  and  _470
REMARK  193  A    between atoms: _469  and  _472
REMARK  194  A    between atoms: _475  and  _477
REMARK  195  A    between atoms: _477  and  _478
REMARK  196  A    between atoms: _477  and  _480
REMARK  197  A    between atoms: _480  and  _481
REMARK  198  A    between atoms: _486  and  _488
REMARK  199  A    between atoms: _488  and  _489
REMARK  200  A    between atoms: _488  and  _491
REMARK  201  A    between atoms: _491  and  _492
REMARK  202  A    between atoms: _495  and  _497
REMARK  203  A    between atoms: _497  and  _498
REMARK  204  A    between atoms: _497  and  _500
REMARK  205  A    between atoms: _500  and  _501
REMARK  206  A    between atoms: _504  and  _506
REMARK  207  A    between atoms: _506  and  _507
REMARK  208  A    between atoms: _509  and  _511
REMARK  209  A    between atoms: _511  and  _512
REMARK  210  A    between atoms: _511  and  _514
REMARK  211  A    between atoms: _514  and  _515
REMARK  212  A    between atoms: _515  and  _516
REMARK  213  A    between atoms: _516  and  _517
REMARK  214  A    between atoms: _526  and  _528
REMARK  215  A    between atoms: _528  and  _529
REMARK  216  A    between atoms: _528  and  _531
REMARK  217  A    between atoms: _531  and  _532
REMARK                            x       y       z     vdW  Elec       q    Type
REMARK                         _______ _______ _______ _____ _____    ______ ____
ROOT
ATOM      1  C   ILE A   4       8.339  -4.539   8.218  0.00  0.00    +0.241 C 
ATOM      2  N   GLY A   5       7.323  -5.373   8.055  0.00  0.00    -0.295 N 
ATOM      3  H   GLY A   5       6.508  -5.339   8.700  0.00  0.00    +0.150 HD
ATOM      4  O   ILE A   4       9.313  -4.520   7.471  0.00  0.00    -0.273 OA
ENDROOT
BRANCH   2   5
ATOM      5  CA  GLY A   5       7.356  -6.336   6.968  0.00  0.00    +0.176 C 
BRANCH   5   6
ATOM      6  C   GLY A   5       6.690  -5.954   5.658  0.00  0.00    +0.243 C 
ATOM      7  N   GLY A   6       6.450  -4.666   5.435  0.00  0.00    -0.295 N 
ATOM      8  H   GLY A   6       6.713  -3.957   6.149  0.00  0.00    +0.150 HD
ATOM      9  O   GLY A   5       6.396  -6.834   4.847  0.00  0.00    -0.273 OA
BRANCH   7  10
ATOM     10  CA  GLY A   6       5.819  -4.248   4.191  0.00  0.00    +0.176 C 
BRANCH  10  11
ATOM     11  C   GLY A   6       4.459  -3.599   4.380  0.00  0.00    +0.243 C 
ATOM     12  O   GLY A   6       4.120  -3.187   5.476  0.00  0.00    -0.273 OA
ATOM     13  N   PHE A   7       3.669  -3.534   3.313  0.00  0.00    -0.297 N 
ATOM     14  H   PHE A   7       3.995  -3.949   2.417  0.00  0.00    +0.150 HD
BRANCH  13  15
ATOM     15  CA  PHE A   7       2.362  -2.900   3.363  0.00  0.00    +0.153 C 
BRANCH  15  16
ATOM     16  C   PHE A   7       1.212  -3.879   3.390  0.00  0.00    +0.241 C 
ATOM     17  N   ILE A   8       0.086  -3.443   3.942  0.00  0.00    -0.298 N 
ATOM     18  H   ILE A   8       0.068  -2.494   4.366  0.00  0.00    +0.150 HD
ATOM     19  O   PHE A   7       1.342  -5.005   2.942  0.00  0.00    -0.273 OA
BRANCH  17  20
ATOM     20  CA  ILE A   8      -1.129  -4.255   3.972  0.00  0.00    +0.137 C 
BRANCH  20  21
ATOM     21  C   ILE A   8      -2.290  -3.354   3.551  0.00  0.00    +0.227 C 
ATOM     22  O   ILE A   8      -2.187  -2.126   3.567  0.00  0.00    -0.286 OA
ENDBRANCH  20  21
BRANCH  20  23
ATOM     23  CB  ILE A   8      -1.442  -4.833   5.391  0.00  0.00    +0.026 C 
ATOM     24  CG2 ILE A   8      -0.316  -5.780   5.836  0.00  0.00    +0.002 C 
BRANCH  23  25
ATOM     25  CG1 ILE A   8      -1.607  -3.694   6.407  0.00  0.00    +0.002 C 
ATOM     26  CD1 ILE A   8      -2.105  -4.165   7.784  0.00  0.00    +0.000 C 
ENDBRANCH  23  25
ENDBRANCH  20  23
ENDBRANCH  17  20
ENDBRANCH  15  16
BRANCH  15  27
ATOM     27  CB  PHE A   7       2.179  -1.976   2.147  0.00  0.00    +0.055 C 
BRANCH  27  28
ATOM     28  CG  PHE A   7       3.032  -0.733   2.187  0.00  0.00    -0.020 A 
ATOM     29  CD2 PHE A   7       2.456   0.511   2.421  0.00  0.00    -0.004 A 
ATOM     30  CE2 PHE A   7       3.244   1.663   2.500  0.00  0.00    -0.000 A 
ATOM     31  CZ  PHE A   7       4.620   1.571   2.347  0.00  0.00    -0.000 A 
ATOM     32  CE1 PHE A   7       5.204   0.335   2.110  0.00  0.00    -0.000 A 
ATOM     33  CD1 PHE A   7       4.415  -0.811   2.031  0.00  0.00    -0.004 A 
ENDBRANCH  27  28
ENDBRANCH  15  27
ENDBRANCH  13  15
ENDBRANCH  10  11
ENDBRANCH   7  10
ENDBRANCH   5   6
ENDBRANCH   2   5
BRANCH   1  34
ATOM     34  CA  ILE A   4       8.257  -3.589   9.393  0.00  0.00    +0.149 C 
BRANCH  34  36
ATOM     35  C   GLY A   3       6.495  -2.156   8.503  0.00  0.00    +0.243 C 
ATOM     36  N   ILE A   4       6.983  -2.885   9.498  0.00  0.00    -0.297 N 
ATOM     37  H   ILE A   4       6.440  -2.957  10.382  0.00  0.00    +0.150 HD
ATOM     38  O   GLY A   3       7.059  -2.031   7.424  0.00  0.00    -0.273 OA
BRANCH  35  39
ATOM     39  CA  GLY A   3       5.169  -1.472   8.751  0.00  0.00    +0.176 C 
BRANCH  39  42
ATOM     40  C   GLY A   2       3.781  -0.126   7.301  0.00  0.00    +0.243 C 
ATOM     41  O   GLY A   2       3.640   0.753   8.161  0.00  0.00    -0.273 OA
ATOM     42  N   GLY A   3       4.497  -1.227   7.492  0.00  0.00    -0.295 N 
ATOM     43  H   GLY A   3       4.577  -1.925   6.725  0.00  0.00    +0.150 HD
BRANCH  40  44
ATOM     44  CA  GLY A   2       3.147  -0.007   5.937  0.00  0.00    +0.176 C 
BRANCH  44  46
ATOM     45  C   ILE A   1       0.810   0.288   5.484  0.00  0.00    +0.238 C 
ATOM     46  N   GLY A   2       1.965   0.821   5.857  0.00  0.00    -0.296 N 
ATOM     47  H   GLY A   2       2.021   1.833   6.092  0.00  0.00    +0.150 HD
ATOM     48  O   ILE A   1       0.680  -0.904   5.228  0.00  0.00    -0.274 OA
BRANCH  45  49
ATOM     49  CA  ILE A   1      -0.383   1.230   5.410  0.00  0.00    +0.145 C 
BRANCH  49  50
ATOM     50  N   ILE A   1      -1.311   0.703   4.406  0.00  0.00    -0.238 NA
ATOM     51  H   ILE A   1      -1.555  -0.308   4.420  0.00  0.00    +0.142 HD
ENDBRANCH  49  50
BRANCH  49  52
ATOM     52  CB  ILE A   1      -1.003   1.323   6.832  0.00  0.00    +0.025 C 
ATOM     53  CG2 ILE A   1      -2.146   2.320   6.855  0.00  0.00    +0.002 C 
BRANCH  52  54
ATOM     54  CG1 ILE A   1      -1.447  -0.061   7.303  0.00  0.00    +0.002 C 
ATOM     55  CD1 ILE A   1      -1.792  -0.082   8.786  0.00  0.00    +0.000 C 
ENDBRANCH  52  54
ENDBRANCH  49  52
ENDBRANCH  45  49
ENDBRANCH  44  46
ENDBRANCH  40  44
ENDBRANCH  39  42
ENDBRANCH  35  39
ENDBRANCH  34  36
BRANCH  34  56
ATOM     56  CB  ILE A   4       8.569  -4.387  10.693  0.00  0.00    +0.027 C 
ATOM     57  CG2 ILE A   4       9.377  -5.647  10.380  0.00  0.00    +0.002 C 
BRANCH  56  58
ATOM     58  CG1 ILE A   4       9.339  -3.497  11.668  0.00  0.00    +0.002 C 
ATOM     59  CD1 ILE A   4      10.663  -3.030  11.137  0.00  0.00    +0.000 C 
ENDBRANCH  56  58
ENDBRANCH  34  56
ENDBRANCH   1  34
TORSDOF 24
REMARK  Name = ../refined-set-2016/1z1h/1z1h_pocket.pdb
REMARK  217 active torsions:
REMARK  status: ('A' for Active; 'I' for Inactive)
REMARK    1  A    between atoms: _1  and  _3
REMARK    2  A    between atoms: _3  and  _4
REMARK    3  A    between atoms: _3  and  _6
REMARK    4  A    between atoms: _6  and  _7
REMARK    5  A    between atoms: _7  and  _8
REMARK    6  A    between atoms: _8  and  _9
REMARK    7  A    between atoms: _18  and  _20
REMARK    8  A    between atoms: _20  and  _21
REMARK    9  A    between atoms: _20  and  _23
REMARK   10  A    between atoms: _23  and  _24
REMARK   11  A    between atoms: _27  and  _29
REMARK   12  A    between atoms: _29  and  _30
REMARK   13  A    between atoms: _29  and  _32
REMARK   14  A    between atoms: _32  and  _33
REMARK   15  A    between atoms: _36  and  _38
REMARK   16  A    between atoms: _38  and  _39
REMARK   17  A    between atoms: _38  and  _41
REMARK   18  A    between atoms: _41  and  _42
REMARK   19  A    between atoms: _45  and  _47
REMARK   20  A    between atoms: _47  and  _48
REMARK   21  A    between atoms: _47  and  _50
REMARK   22  A    between atoms: _50  and  _51
REMARK   23  A    between atoms: _54  and  _56
REMARK   24  A    between atoms: _56  and  _57
REMARK   25  A    between atoms: _59  and  _61
REMARK   26  A    between atoms: _61  and  _62
REMARK   27  A    between atoms: _65  and  _67
REMARK   28  A    between atoms: _67  and  _68
REMARK   29  A    between atoms: _67  and  _70
REMARK   30  A    between atoms: _70  and  _71
REMARK   31  A    between atoms: _74  and  _76
REMARK   32  A    between atoms: _76  and  _77
REMARK   33  A    between atoms: _76  and  _79
REMARK   34  A    between atoms: _79  and  _80
REMARK   35  A    between atoms: _83  and  _85
REMARK   36  A    between atoms: _85  and  _86
REMARK   37  A    between atoms: _85  and  _88
REMARK   38  A    between atoms: _88  and  _89
REMARK   39  A    between atoms: _92  and  _94
REMARK   40  A    between atoms: _94  and  _95
REMARK   41  A    between atoms: _94  and  _97
REMARK   42  A    between atoms: _100  and  _102
REMARK   43  A    between atoms: _102  and  _103
REMARK   44  A    between atoms: _102  and  _105
REMARK   45  A    between atoms: _105  and  _106
REMARK   46  A    between atoms: _109  and  _111
REMARK   47  A    between atoms: _111  and  _112
REMARK   48  A    between atoms: _114  and  _116
REMARK   49  A    between atoms: _116  and  _117
REMARK   50  A    between atoms: _119  and  _121
REMARK   51  A    between atoms: _121  and  _122
REMARK   52  A    between atoms: _121  and  _124
REMARK   53  A    between atoms: _124  and  _125
REMARK   54  A    between atoms: _128  and  _130
REMARK   55  A    between atoms: _130  and  _131
REMARK   56  A    between atoms: _133  and  _135
REMARK   57  A    between atoms: _135  and  _136
REMARK   58  A    between atoms: _138  and  _140
REMARK   59  A    between atoms: _140  and  _141
REMARK   60  A    between atoms: _140  and  _143
REMARK   61  A    between atoms: _143  and  _144
REMARK   62  A    between atoms: _150  and  _152
REMARK   63  A    between atoms: _152  and  _153
REMARK   64  A    between atoms: _152  and  _155
REMARK   65  A    between atoms: _155  and  _156
REMARK   66  A    between atoms: _159  and  _161
REMARK   67  A    between atoms: _161  and  _162
REMARK   68  A    between atoms: _161  and  _164
REMARK   69  A    between atoms: _164  and  _165
REMARK   70  A    between atoms: _168  and  _170
REMARK   71  A    between atoms: _170  and  _171
REMARK   72  A    between atoms: _170  and  _173
REMARK   73  A    between atoms: _173  and  _174
REMARK   74  A    between atoms: _178  and  _179
REMARK   75  A    between atoms: _184  and  _186
REMARK   76  A    between atoms: _186  and  _187
REMARK   77  A    between atoms: _186  and  _189
REMARK   78  A    between atoms: _192  and  _194
REMARK   79  A    between atoms: _194  and  _195
REMARK   80  A    between atoms: _194  and  _197
REMARK   81  A    between atoms: _197  and  _198
REMARK   82  A    between atoms: _203  and  _205
REMARK   83  A    between atoms: _205  and  _206
REMARK   84  A    between atoms: _205  and  _208
REMARK   85  A    between atoms: _208  and  _209
REMARK   86  A    between atoms: _212  and  _214
REMARK   87  A    between atoms: _214  and  _215
REMARK   88  A    between atoms: _214  and  _217
REMARK   89  A    between atoms: _217  and  _218
REMARK   90  A    between atoms: _221  and  _223
REMARK   91  A    between atoms: _223  and  _224
REMARK   92  A    between atoms: _226  and  _228
REMARK   93  A    between atoms: _228  and  _229
REMARK   94  A    between atoms: _228  and  _231
REMARK   95  A    between atoms: _231  and  _232
REMARK   96  A    between atoms: _232  and  _233
REMARK   97  A    between atoms: _233  and  _234
REMARK   98  A    between atoms: _243  and  _245
REMARK   99  A    between atoms: _245  and  _246
REMARK  100  A    between atoms: _245  and  _248
REMARK  101  A    between atoms: _248  and  _249
REMARK  102  A    between atoms: _254  and  _256
REMARK  103  A    between atoms: _256  and  _257
REMARK  104  A    between atoms: _256  and  _259
REMARK  105  A    between atoms: _259  and  _260
REMARK  106  A    between atoms: _260  and  _261
REMARK  107  A    between atoms: _261  and  _262
REMARK  108  A    between atoms: _271  and  _273
REMARK  109  A    between atoms: _273  and  _274
REMARK  110  A    between atoms: _273  and  _276
REMARK  111  A    between atoms: _276  and  _277
REMARK  112  A    between atoms: _280  and  _282
REMARK  113  A    between atoms: _282  and  _283
REMARK  114  A    between atoms: _282  and  _285
REMARK  115  A    between atoms: _285  and  _286
REMARK  116  A    between atoms: _289  and  _291
REMARK  117  A    between atoms: _291  and  _292
REMARK  118  A    between atoms: _291  and  _294
REMARK  119  A    between atoms: _294  and  _295
REMARK  120  A    between atoms: _298  and  _300
REMARK  121  A    between atoms: _300  and  _301
REMARK  122  A    between atoms: _300  and  _303
REMARK  123  A    between atoms: _303  and  _304
REMARK  124  A    between atoms: _307  and  _309
REMARK  125  A    between atoms: _309  and  _310
REMARK  126  A    between atoms: _312  and  _314
REMARK  127  A    between atoms: _314  and  _315
REMARK  128  A    between atoms: _318  and  _320
REMARK  129  A    between atoms: _320  and  _321
REMARK  130  A    between atoms: _320  and  _323
REMARK  131  A    between atoms: _323  and  _324
REMARK  132  A    between atoms: _327  and  _329
REMARK  133  A    between atoms: _329  and  _330
REMARK  134  A    between atoms: _329  and  _332
REMARK  135  A    between atoms: _332  and  _333
REMARK  136  A    between atoms: _336  and  _338
REMARK  137  A    between atoms: _338  and  _339
REMARK  138  A    between atoms: _338  and  _341
REMARK  139  A    between atoms: _341  and  _342
REMARK  140  A    between atoms: _345  and  _347
REMARK  141  A    between atoms: _347  and  _348
REMARK  142  A    between atoms: _347  and  _350
REMARK  143  A    between atoms: _353  and  _355
REMARK  144  A    between atoms: _355  and  _356
REMARK  145  A    between atoms: _355  and  _358
REMARK  146  A    between atoms: _358  and  _359
REMARK  147  A    between atoms: _359  and  _360
REMARK  148  A    between atoms: _360  and  _361
REMARK  149  A    between atoms: _361  and  _362
REMARK  150  A    between atoms: _366  and  _368
REMARK  151  A    between atoms: _368  and  _369
REMARK  152  A    between atoms: _368  and  _371
REMARK  153  A    between atoms: _371  and  _372
REMARK  154  A    between atoms: _372  and  _373
REMARK  155  A    between atoms: _375  and  _377
REMARK  156  A    between atoms: _377  and  _378
REMARK  157  A    between atoms: _377  and  _380
REMARK  158  A    between atoms: _380  and  _381
REMARK  159  A    between atoms: _384  and  _386
REMARK  160  A    between atoms: _386  and  _387
REMARK  161  A    between atoms: _389  and  _391
REMARK  162  A    between atoms: _391  and  _392
REMARK  163  A    between atoms: _394  and  _396
REMARK  164  A    between atoms: _396  and  _397
REMARK  165  A    between atoms: _396  and  _399
REMARK  166  A    between atoms: _399  and  _400
REMARK  167  A    between atoms: _403  and  _405
REMARK  168  A    between atoms: _405  and  _406
REMARK  169  A    between atoms: _408  and  _410
REMARK  170  A    between atoms: _410  and  _411
REMARK  171  A    between atoms: _413  and  _415
REMARK  172  A    between atoms: _415  and  _416
REMARK  173  A    between atoms: _415  and  _418
REMARK  174  A    between atoms: _418  and  _419
REMARK  175  A    between atoms: _425  and  _427
REMARK  176  A    between atoms: _427  and  _428
REMARK  177  A    between atoms: _427  and  _430
REMARK  178  A    between atoms: _430  and  _431
REMARK  179  A    between atoms: _434  and  _436
REMARK  180  A    between atoms: _436  and  _437
REMARK  181  A    between atoms: _436  and  _439
REMARK  182  A    between atoms: _442  and  _444
REMARK  183  A    between atoms: _444  and  _445
REMARK  184  A    between atoms: _444  and  _447
REMARK  185  A    between atoms: _447  and  _448
REMARK  186  A    between atoms: _451  and  _453
REMARK  187  A    between atoms: _453  and  _454
REMARK  188  A    between atoms: _453  and  _456
REMARK  189  A    between atoms: _456  and  _457
REMARK  190  A    between atoms: _461  and  _462
REMARK  191  A    between atoms: _467  and  _469
REMARK  192  A    between atoms: _469  and  _470
REMARK  193  A    between atoms: _469  and  _472
REMARK  194  A    between atoms: _475  and  _477
REMARK  195  A    between atoms: _477  and  _478
REMARK  196  A    between atoms: _477  and  _480
REMARK  197  A    between atoms: _480  and  _481
REMARK  198  A    between atoms: _486  and  _488
REMARK  199  A    between atoms: _488  and  _489
REMARK  200  A    between atoms: _488  and  _491
REMARK  201  A    between atoms: _491  and  _492
REMARK  202  A    between atoms: _495  and  _497
REMARK  203  A    between atoms: _497  and  _498
REMARK  204  A    between atoms: _497  and  _500
REMARK  205  A    between atoms: _500  and  _501
REMARK  206  A    between atoms: _504  and  _506
REMARK  207  A    between atoms: _506  and  _507
REMARK  208  A    between atoms: _509  and  _511
REMARK  209  A    between atoms: _511  and  _512
REMARK  210  A    between atoms: _511  and  _514
REMARK  211  A    between atoms: _514  and  _515
REMARK  212  A    between atoms: _515  and  _516
REMARK  213  A    between atoms: _516  and  _517
REMARK  214  A    between atoms: _526  and  _528
REMARK  215  A    between atoms: _528  and  _529
REMARK  216  A    between atoms: _528  and  _531
REMARK  217  A    between atoms: _531  and  _532
REMARK                            x       y       z     vdW  Elec       q    Type
REMARK                         _______ _______ _______ _____ _____    ______ ____
ROOT
ATOM      1  CA  LEU A   1      -8.050   1.399  10.229  0.00  0.00    +0.133 C 
ENDROOT
BRANCH   1   2
ATOM      2  N   LEU A   1      -8.302   2.272  11.385  0.00  0.00    -0.239 NA
ATOM      3  H   LEU A   1      -7.570   2.365  12.117  0.00  0.00    +0.142 HD
ENDBRANCH   1   2
BRANCH   1   4
ATOM      4  C   LEU A   1      -8.307  -0.039  10.645  0.00  0.00    +0.224 C 
ATOM      5  O   LEU A   1      -7.874  -0.465  11.708  0.00  0.00    -0.287 OA
ENDBRANCH   1   4
BRANCH   1   6
ATOM      6  CB  LEU A   1      -6.600   1.543   9.749  0.00  0.00    +0.025 C 
BRANCH   6   7
ATOM      7  CG  LEU A   1      -6.134   2.985   9.514  0.00  0.00    +0.002 C 
ATOM      8  CD2 LEU A   1      -4.691   3.025   9.018  0.00  0.00    +0.000 C 
ATOM      9  CD1 LEU A   1      -7.037   3.628   8.526  0.00  0.00    +0.000 C 
ENDBRANCH   6   7
ENDBRANCH   1   6
TORSDOF 4
REMARK  Name = ../refined-set-2016/1z1h/1z1h_pocket.pdb
REMARK  217 active torsions:
REMARK  status: ('A' for Active; 'I' for Inactive)
REMARK    1  A    between atoms: _1  and  _3
REMARK    2  A    between atoms: _3  and  _4
REMARK    3  A    between atoms: _3  and  _6
REMARK    4  A    between atoms: _6  and  _7
REMARK    5  A    between atoms: _7  and  _8
REMARK    6  A    between atoms: _8  and  _9
REMARK    7  A    between atoms: _18  and  _20
REMARK    8  A    between atoms: _20  and  _21
REMARK    9  A    between atoms: _20  and  _23
REMARK   10  A    between atoms: _23  and  _24
REMARK   11  A    between atoms: _27  and  _29
REMARK   12  A    between atoms: _29  and  _30
REMARK   13  A    between atoms: _29  and  _32
REMARK   14  A    between atoms: _32  and  _33
REMARK   15  A    between atoms: _36  and  _38
REMARK   16  A    between atoms: _38  and  _39
REMARK   17  A    between atoms: _38  and  _41
REMARK   18  A    between atoms: _41  and  _42
REMARK   19  A    between atoms: _45  and  _47
REMARK   20  A    between atoms: _47  and  _48
REMARK   21  A    between atoms: _47  and  _50
REMARK   22  A    between atoms: _50  and  _51
REMARK   23  A    between atoms: _54  and  _56
REMARK   24  A    between atoms: _56  and  _57
REMARK   25  A    between atoms: _59  and  _61
REMARK   26  A    between atoms: _61  and  _62
REMARK   27  A    between atoms: _65  and  _67
REMARK   28  A    between atoms: _67  and  _68
REMARK   29  A    between atoms: _67  and  _70
REMARK   30  A    between atoms: _70  and  _71
REMARK   31  A    between atoms: _74  and  _76
REMARK   32  A    between atoms: _76  and  _77
REMARK   33  A    between atoms: _76  and  _79
REMARK   34  A    between atoms: _79  and  _80
REMARK   35  A    between atoms: _83  and  _85
REMARK   36  A    between atoms: _85  and  _86
REMARK   37  A    between atoms: _85  and  _88
REMARK   38  A    between atoms: _88  and  _89
REMARK   39  A    between atoms: _92  and  _94
REMARK   40  A    between atoms: _94  and  _95
REMARK   41  A    between atoms: _94  and  _97
REMARK   42  A    between atoms: _100  and  _102
REMARK   43  A    between atoms: _102  and  _103
REMARK   44  A    between atoms: _102  and  _105
REMARK   45  A    between atoms: _105  and  _106
REMARK   46  A    between atoms: _109  and  _111
REMARK   47  A    between atoms: _111  and  _112
REMARK   48  A    between atoms: _114  and  _116
REMARK   49  A    between atoms: _116  and  _117
REMARK   50  A    between atoms: _119  and  _121
REMARK   51  A    between atoms: _121  and  _122
REMARK   52  A    between atoms: _121  and  _124
REMARK   53  A    between atoms: _124  and  _125
REMARK   54  A    between atoms: _128  and  _130
REMARK   55  A    between atoms: _130  and  _131
REMARK   56  A    between atoms: _133  and  _135
REMARK   57  A    between atoms: _135  and  _136
REMARK   58  A    between atoms: _138  and  _140
REMARK   59  A    between atoms: _140  and  _141
REMARK   60  A    between atoms: _140  and  _143
REMARK   61  A    between atoms: _143  and  _144
REMARK   62  A    between atoms: _150  and  _152
REMARK   63  A    between atoms: _152  and  _153
REMARK   64  A    between atoms: _152  and  _155
REMARK   65  A    between atoms: _155  and  _156
REMARK   66  A    between atoms: _159  and  _161
REMARK   67  A    between atoms: _161  and  _162
REMARK   68  A    between atoms: _161  and  _164
REMARK   69  A    between atoms: _164  and  _165
REMARK   70  A    between atoms: _168  and  _170
REMARK   71  A    between atoms: _170  and  _171
REMARK   72  A    between atoms: _170  and  _173
REMARK   73  A    between atoms: _173  and  _174
REMARK   74  A    between atoms: _178  and  _179
REMARK   75  A    between atoms: _184  and  _186
REMARK   76  A    between atoms: _186  and  _187
REMARK   77  A    between atoms: _186  and  _189
REMARK   78  A    between atoms: _192  and  _194
REMARK   79  A    between atoms: _194  and  _195
REMARK   80  A    between atoms: _194  and  _197
REMARK   81  A    between atoms: _197  and  _198
REMARK   82  A    between atoms: _203  and  _205
REMARK   83  A    between atoms: _205  and  _206
REMARK   84  A    between atoms: _205  and  _208
REMARK   85  A    between atoms: _208  and  _209
REMARK   86  A    between atoms: _212  and  _214
REMARK   87  A    between atoms: _214  and  _215
REMARK   88  A    between atoms: _214  and  _217
REMARK   89  A    between atoms: _217  and  _218
REMARK   90  A    between atoms: _221  and  _223
REMARK   91  A    between atoms: _223  and  _224
REMARK   92  A    between atoms: _226  and  _228
REMARK   93  A    between atoms: _228  and  _229
REMARK   94  A    between atoms: _228  and  _231
REMARK   95  A    between atoms: _231  and  _232
REMARK   96  A    between atoms: _232  and  _233
REMARK   97  A    between atoms: _233  and  _234
REMARK   98  A    between atoms: _243  and  _245
REMARK   99  A    between atoms: _245  and  _246
REMARK  100  A    between atoms: _245  and  _248
REMARK  101  A    between atoms: _248  and  _249
REMARK  102  A    between atoms: _254  and  _256
REMARK  103  A    between atoms: _256  and  _257
REMARK  104  A    between atoms: _256  and  _259
REMARK  105  A    between atoms: _259  and  _260
REMARK  106  A    between atoms: _260  and  _261
REMARK  107  A    between atoms: _261  and  _262
REMARK  108  A    between atoms: _271  and  _273
REMARK  109  A    between atoms: _273  and  _274
REMARK  110  A    between atoms: _273  and  _276
REMARK  111  A    between atoms: _276  and  _277
REMARK  112  A    between atoms: _280  and  _282
REMARK  113  A    between atoms: _282  and  _283
REMARK  114  A    between atoms: _282  and  _285
REMARK  115  A    between atoms: _285  and  _286
REMARK  116  A    between atoms: _289  and  _291
REMARK  117  A    between atoms: _291  and  _292
REMARK  118  A    between atoms: _291  and  _294
REMARK  119  A    between atoms: _294  and  _295
REMARK  120  A    between atoms: _298  and  _300
REMARK  121  A    between atoms: _300  and  _301
REMARK  122  A    between atoms: _300  and  _303
REMARK  123  A    between atoms: _303  and  _304
REMARK  124  A    between atoms: _307  and  _309
REMARK  125  A    between atoms: _309  and  _310
REMARK  126  A    between atoms: _312  and  _314
REMARK  127  A    between atoms: _314  and  _315
REMARK  128  A    between atoms: _318  and  _320
REMARK  129  A    between atoms: _320  and  _321
REMARK  130  A    between atoms: _320  and  _323
REMARK  131  A    between atoms: _323  and  _324
REMARK  132  A    between atoms: _327  and  _329
REMARK  133  A    between atoms: _329  and  _330
REMARK  134  A    between atoms: _329  and  _332
REMARK  135  A    between atoms: _332  and  _333
REMARK  136  A    between atoms: _336  and  _338
REMARK  137  A    between atoms: _338  and  _339
REMARK  138  A    between atoms: _338  and  _341
REMARK  139  A    between atoms: _341  and  _342
REMARK  140  A    between atoms: _345  and  _347
REMARK  141  A    between atoms: _347  and  _348
REMARK  142  A    between atoms: _347  and  _350
REMARK  143  A    between atoms: _353  and  _355
REMARK  144  A    between atoms: _355  and  _356
REMARK  145  A    between atoms: _355  and  _358
REMARK  146  A    between atoms: _358  and  _359
REMARK  147  A    between atoms: _359  and  _360
REMARK  148  A    between atoms: _360  and  _361
REMARK  149  A    between atoms: _361  and  _362
REMARK  150  A    between atoms: _366  and  _368
REMARK  151  A    between atoms: _368  and  _369
REMARK  152  A    between atoms: _368  and  _371
REMARK  153  A    between atoms: _371  and  _372
REMARK  154  A    between atoms: _372  and  _373
REMARK  155  A    between atoms: _375  and  _377
REMARK  156  A    between atoms: _377  and  _378
REMARK  157  A    between atoms: _377  and  _380
REMARK  158  A    between atoms: _380  and  _381
REMARK  159  A    between atoms: _384  and  _386
REMARK  160  A    between atoms: _386  and  _387
REMARK  161  A    between atoms: _389  and  _391
REMARK  162  A    between atoms: _391  and  _392
REMARK  163  A    between atoms: _394  and  _396
REMARK  164  A    between atoms: _396  and  _397
REMARK  165  A    between atoms: _396  and  _399
REMARK  166  A    between atoms: _399  and  _400
REMARK  167  A    between atoms: _403  and  _405
REMARK  168  A    between atoms: _405  and  _406
REMARK  169  A    between atoms: _408  and  _410
REMARK  170  A    between atoms: _410  and  _411
REMARK  171  A    between atoms: _413  and  _415
REMARK  172  A    between atoms: _415  and  _416
REMARK  173  A    between atoms: _415  and  _418
REMARK  174  A    between atoms: _418  and  _419
REMARK  175  A    between atoms: _425  and  _427
REMARK  176  A    between atoms: _427  and  _428
REMARK  177  A    between atoms: _427  and  _430
REMARK  178  A    between atoms: _430  and  _431
REMARK  179  A    between atoms: _434  and  _436
REMARK  180  A    between atoms: _436  and  _437
REMARK  181  A    between atoms: _436  and  _439
REMARK  182  A    between atoms: _442  and  _444
REMARK  183  A    between atoms: _444  and  _445
REMARK  184  A    between atoms: _444  and  _447
REMARK  185  A    between atoms: _447  and  _448
REMARK  186  A    between atoms: _451  and  _453
REMARK  187  A    between atoms: _453  and  _454
REMARK  188  A    between atoms: _453  and  _456
REMARK  189  A    between atoms: _456  and  _457
REMARK  190  A    between atoms: _461  and  _462
REMARK  191  A    between atoms: _467  and  _469
REMARK  192  A    between atoms: _469  and  _470
REMARK  193  A    between atoms: _469  and  _472
REMARK  194  A    between atoms: _475  and  _477
REMARK  195  A    between atoms: _477  and  _478
REMARK  196  A    between atoms: _477  and  _480
REMARK  197  A    between atoms: _480  and  _481
REMARK  198  A    between atoms: _486  and  _488
REMARK  199  A    between atoms: _488  and  _489
REMARK  200  A    between atoms: _488  and  _491
REMARK  201  A    between atoms: _491  and  _492
REMARK  202  A    between atoms: _495  and  _497
REMARK  203  A    between atoms: _497  and  _498
REMARK  204  A    between atoms: _497  and  _500
REMARK  205  A    between atoms: _500  and  _501
REMARK  206  A    between atoms: _504  and  _506
REMARK  207  A    between atoms: _506  and  _507
REMARK  208  A    between atoms: _509  and  _511
REMARK  209  A    between atoms: _511  and  _512
REMARK  210  A    between atoms: _511  and  _514
REMARK  211  A    between atoms: _514  and  _515
REMARK  212  A    between atoms: _515  and  _516
REMARK  213  A    between atoms: _516  and  _517
REMARK  214  A    between atoms: _526  and  _528
REMARK  215  A    between atoms: _528  and  _529
REMARK  216  A    between atoms: _528  and  _531
REMARK  217  A    between atoms: _531  and  _532
REMARK                            x       y       z     vdW  Elec       q    Type
REMARK                         _______ _______ _______ _____ _____    ______ ____
ROOT
ATOM      1  C   ILE A   5      -3.557   0.576  18.130  0.00  0.00    +0.241 C 
ATOM      2  N   ILE A   6      -3.314   1.262  19.243  0.00  0.00    -0.297 N 
ATOM      3  H   ILE A   6      -2.781   0.823  20.021  0.00  0.00    +0.150 HD
ATOM      4  O   ILE A   5      -4.285   0.991  17.236  0.00  0.00    -0.273 OA
ENDROOT
BRANCH   2   5
ATOM      5  CA  ILE A   6      -3.795   2.626  19.369  0.00  0.00    +0.149 C 
BRANCH   5   6
ATOM      6  C   ILE A   6      -2.589   3.493  18.986  0.00  0.00    +0.241 C 
ATOM      7  O   ILE A   6      -1.582   3.503  19.704  0.00  0.00    -0.273 OA
ATOM      8  N   GLY A   7      -2.695   4.213  17.868  0.00  0.00    -0.295 N 
ATOM      9  H   GLY A   7      -3.577   4.173  17.319  0.00  0.00    +0.150 HD
BRANCH   8  10
ATOM     10  CA  GLY A   7      -1.600   5.056  17.399  0.00  0.00    +0.176 C 
BRANCH  10  11
ATOM     11  C   GLY A   7      -1.657   6.498  17.844  0.00  0.00    +0.243 C 
ATOM     12  O   GLY A   7      -2.585   6.890  18.544  0.00  0.00    -0.273 OA
ATOM     13  N   ARG A   8      -0.674   7.295  17.419  0.00  0.00    -0.297 N 
ATOM     14  H   ARG A   8       0.052   6.904  16.786  0.00  0.00    +0.150 HD
BRANCH  13  15
ATOM     15  CA  ARG A   8      -0.585   8.707  17.817  0.00  0.00    +0.149 C 
BRANCH  15  16
ATOM     16  C   ARG A   8      -1.810   9.557  17.506  0.00  0.00    +0.241 C 
ATOM     17  O   ARG A   8      -2.094  10.517  18.225  0.00  0.00    -0.273 OA
ATOM     18  N   ASN A   9      -2.546   9.221  16.460  0.00  0.00    -0.298 N 
ATOM     19  H   ASN A   9      -2.287   8.407  15.867  0.00  0.00    +0.150 HD
BRANCH  18  20
ATOM     20  CA  ASN A   9      -3.726  10.015  16.158  0.00  0.00    +0.146 C 
BRANCH  20  21
ATOM     21  C   ASN A   9      -4.723  10.017  17.325  0.00  0.00    +0.227 C 
ATOM     22  O   ASN A   9      -5.371  11.033  17.570  0.00  0.00    -0.286 OA
ENDBRANCH  20  21
BRANCH  20  23
ATOM     23  CB  ASN A   9      -4.391   9.534  14.849  0.00  0.00    +0.112 C 
BRANCH  23  24
ATOM     24  CG  ASN A   9      -5.039   8.175  14.981  0.00  0.00    +0.222 C 
ATOM     25  OD1 ASN A   9      -4.412   7.212  15.420  0.00  0.00    -0.275 OA
ATOM     26  ND2 ASN A   9      -6.314   8.093  14.602  0.00  0.00    -0.329 N 
ATOM     27 HD21 ASN A   9      -6.820   7.187  14.672  0.00  0.00    +0.145 HD
ATOM     28 HD22 ASN A   9      -6.803   8.935  14.237  0.00  0.00    +0.145 HD
ENDBRANCH  23  24
ENDBRANCH  20  23
ENDBRANCH  18  20
ENDBRANCH  15  16
BRANCH  15  29
ATOM     29  CB  ARG A   8       0.668   9.372  17.222  0.00  0.00    +0.033 C 
BRANCH  29  30
ATOM     30  CG  ARG A   8       1.988   8.829  17.794  0.00  0.00    +0.045 C 
BRANCH  30  31
ATOM     31  CD  ARG A   8       3.223   9.638  17.312  0.00  0.00    +0.174 C 
BRANCH  31  32
ATOM     32  NE  ARG A   8       3.361   9.578  15.851  0.00  0.00    -0.265 N 
ATOM     33  HE  ARG A   8       3.796   8.723  15.449  0.00  0.00    +0.259 HD
ATOM     34  CZ  ARG A   8       2.976  10.528  14.995  0.00  0.00    +0.342 C 
ATOM     35  NH2 ARG A   8       2.429  11.666  15.434  0.00  0.00    -0.292 N 
ATOM     36 HH21 ARG A   8       2.298  11.821  16.454  0.00  0.00    +0.255 HD
ATOM     37 HH22 ARG A   8       2.134  12.397  14.755  0.00  0.00    +0.255 HD
ATOM     38  NH1 ARG A   8       3.082  10.308  13.683  0.00  0.00    -0.292 N 
ATOM     39 HH11 ARG A   8       3.461   9.404  13.336  0.00  0.00    +0.255 HD
ATOM     40 HH12 ARG A   8       2.785  11.041  13.007  0.00  0.00    +0.255 HD
ENDBRANCH  31  32
ENDBRANCH  30  31
ENDBRANCH  29  30
ENDBRANCH  15  29
ENDBRANCH  13  15
ENDBRANCH  10  11
ENDBRANCH   8  10
ENDBRANCH   5   6
BRANCH   5  41
ATOM     41  CB  ILE A   6      -4.197   2.969  20.803  0.00  0.00    +0.027 C 
ATOM     42  CG2 ILE A   6      -4.622   4.440  20.857  0.00  0.00    +0.002 C 
BRANCH  41  43
ATOM     43  CG1 ILE A   6      -5.327   2.038  21.271  0.00  0.00    +0.002 C 
ATOM     44  CD1 ILE A   6      -6.580   2.078  20.382  0.00  0.00    +0.000 C 
ENDBRANCH  41  43
ENDBRANCH   5  41
ENDBRANCH   2   5
BRANCH   1  45
ATOM     45  CA  ILE A   5      -2.919  -0.800  18.018  0.00  0.00    +0.149 C 
BRANCH  45  48
ATOM     46  C   ASN A   4      -3.977  -2.908  18.549  0.00  0.00    +0.241 C 
ATOM     47  O   ASN A   4      -3.370  -2.982  19.619  0.00  0.00    -0.273 OA
ATOM     48  N   ILE A   5      -3.858  -1.879  17.730  0.00  0.00    -0.297 N 
ATOM     49  H   ILE A   5      -4.441  -1.837  16.869  0.00  0.00    +0.150 HD
BRANCH  46  50
ATOM     50  CA  ASN A   4      -4.924  -4.011  18.097  0.00  0.00    +0.158 C 
BRANCH  50  52
ATOM     51  C   VAL A   3      -3.249  -5.600  17.278  0.00  0.00    +0.241 C 
ATOM     52  N   ASN A   4      -4.204  -5.280  18.155  0.00  0.00    -0.297 N 
ATOM     53  H   ASN A   4      -4.443  -5.959  18.906  0.00  0.00    +0.150 HD
ATOM     54  O   VAL A   3      -2.924  -4.874  16.325  0.00  0.00    -0.273 OA
BRANCH  51  55
ATOM     55  CA  VAL A   3      -2.563  -6.956  17.478  0.00  0.00    +0.149 C 
BRANCH  55  58
ATOM     56  C   PRO A   2      -1.736  -8.720  16.001  0.00  0.00    +0.241 C 
ATOM     57  O   PRO A   2      -1.965  -9.605  16.828  0.00  0.00    -0.273 OA
ATOM     58  N   VAL A   3      -1.991  -7.431  16.222  0.00  0.00    -0.297 N 
ATOM     59  H   VAL A   3      -1.775  -6.740  15.475  0.00  0.00    +0.150 HD
BRANCH  56  62
ATOM     60  C   THR A   1      -2.690  -7.824  13.154  0.00  0.00    +0.244 C 
ATOM     61  N   PRO A   2      -1.453  -8.070  13.616  0.00  0.00    -0.272 N 
ATOM     62  CA  PRO A   2      -1.110  -9.055  14.650  0.00  0.00    +0.152 C 
ATOM     63  CB  PRO A   2       0.416  -8.967  14.726  0.00  0.00    +0.031 C 
ATOM     64  CG  PRO A   2       0.799  -8.539  13.360  0.00  0.00    +0.024 C 
ATOM     65  CD  PRO A   2      -0.238  -7.520  12.992  0.00  0.00    +0.094 C 
ATOM     66  O   THR A   1      -3.673  -8.444  13.558  0.00  0.00    -0.273 OA
BRANCH  60  67
ATOM     67  CA  THR A   1      -2.833  -6.750  12.074  0.00  0.00    +0.172 C 
BRANCH  67  68
ATOM     68  CB  THR A   1      -3.028  -5.370  12.743  0.00  0.00    +0.135 C 
ATOM     69  CG2 THR A   1      -4.370  -5.292  13.453  0.00  0.00    +0.034 C 
BRANCH  68  70
ATOM     70  OG1 THR A   1      -1.993  -5.166  13.708  0.00  0.00    -0.383 OA
ATOM     71  HG1 THR A   1      -2.038  -5.878  14.394  0.00  0.00    +0.210 HD
ENDBRANCH  68  70
ENDBRANCH  67  68
BRANCH  67  72
ATOM     72  N   THR A   1      -3.974  -7.116  11.250  0.00  0.00    -0.236 NA
ATOM     73  H   THR A   1      -4.938  -6.996  11.621  0.00  0.00    +0.142 HD
ENDBRANCH  67  72
ENDBRANCH  60  67
ENDBRANCH  56  62
ENDBRANCH  55  58
BRANCH  55  74
ATOM     74  CB  VAL A   3      -1.450  -6.815  18.555  0.00  0.00    +0.027 C 
ATOM     75  CG2 VAL A   3      -2.001  -6.154  19.819  0.00  0.00    +0.002 C 
ATOM     76  CG1 VAL A   3      -0.295  -5.994  18.000  0.00  0.00    +0.002 C 
ENDBRANCH  55  74
ENDBRANCH  51  55
ENDBRANCH  50  52
BRANCH  50  77
ATOM     77  CB  ASN A   4      -6.172  -4.050  18.993  0.00  0.00    +0.114 C 
BRANCH  77  78
ATOM     78  CG  ASN A   4      -7.186  -5.067  18.515  0.00  0.00    +0.222 C 
ATOM     79  ND2 ASN A   4      -7.756  -5.832  19.443  0.00  0.00    -0.329 N 
ATOM     80 HD21 ASN A   4      -7.500  -5.714  20.444  0.00  0.00    +0.145 HD
ATOM     81 HD22 ASN A   4      -8.458  -6.548  19.167  0.00  0.00    +0.145 HD
ATOM     82  OD1 ASN A   4      -7.453  -5.165  17.314  0.00  0.00    -0.275 OA
ENDBRANCH  77  78
ENDBRANCH  50  77
ENDBRANCH  46  50
ENDBRANCH  45  48
BRANCH  45  83
ATOM     83  CB  ILE A   5      -1.864  -0.741  16.881  0.00  0.00    +0.027 C 
ATOM     84  CG2 ILE A   5      -1.013   0.526  16.972  0.00  0.00    +0.002 C 
BRANCH  83  85
ATOM     85  CG1 ILE A   5      -0.995  -1.992  16.934  0.00  0.00    +0.002 C 
ATOM     86  CD1 ILE A   5      -0.288  -2.254  15.616  0.00  0.00    +0.000 C 
ENDBRANCH  83  85
ENDBRANCH  45  83
ENDBRANCH   1  45
TORSDOF 32
REMARK  Name = ../refined-set-2016/1z1h/1z1h_pocket.pdb
REMARK  217 active torsions:
REMARK  status: ('A' for Active; 'I' for Inactive)
REMARK    1  A    between atoms: _1  and  _3
REMARK    2  A    between atoms: _3  and  _4
REMARK    3  A    between atoms: _3  and  _6
REMARK    4  A    between atoms: _6  and  _7
REMARK    5  A    between atoms: _7  and  _8
REMARK    6  A    between atoms: _8  and  _9
REMARK    7  A    between atoms: _18  and  _20
REMARK    8  A    between atoms: _20  and  _21
REMARK    9  A    between atoms: _20  and  _23
REMARK   10  A    between atoms: _23  and  _24
REMARK   11  A    between atoms: _27  and  _29
REMARK   12  A    between atoms: _29  and  _30
REMARK   13  A    between atoms: _29  and  _32
REMARK   14  A    between atoms: _32  and  _33
REMARK   15  A    between atoms: _36  and  _38
REMARK   16  A    between atoms: _38  and  _39
REMARK   17  A    between atoms: _38  and  _41
REMARK   18  A    between atoms: _41  and  _42
REMARK   19  A    between atoms: _45  and  _47
REMARK   20  A    between atoms: _47  and  _48
REMARK   21  A    between atoms: _47  and  _50
REMARK   22  A    between atoms: _50  and  _51
REMARK   23  A    between atoms: _54  and  _56
REMARK   24  A    between atoms: _56  and  _57
REMARK   25  A    between atoms: _59  and  _61
REMARK   26  A    between atoms: _61  and  _62
REMARK   27  A    between atoms: _65  and  _67
REMARK   28  A    between atoms: _67  and  _68
REMARK   29  A    between atoms: _67  and  _70
REMARK   30  A    between atoms: _70  and  _71
REMARK   31  A    between atoms: _74  and  _76
REMARK   32  A    between atoms: _76  and  _77
REMARK   33  A    between atoms: _76  and  _79
REMARK   34  A    between atoms: _79  and  _80
REMARK   35  A    between atoms: _83  and  _85
REMARK   36  A    between atoms: _85  and  _86
REMARK   37  A    between atoms: _85  and  _88
REMARK   38  A    between atoms: _88  and  _89
REMARK   39  A    between atoms: _92  and  _94
REMARK   40  A    between atoms: _94  and  _95
REMARK   41  A    between atoms: _94  and  _97
REMARK   42  A    between atoms: _100  and  _102
REMARK   43  A    between atoms: _102  and  _103
REMARK   44  A    between atoms: _102  and  _105
REMARK   45  A    between atoms: _105  and  _106
REMARK   46  A    between atoms: _109  and  _111
REMARK   47  A    between atoms: _111  and  _112
REMARK   48  A    between atoms: _114  and  _116
REMARK   49  A    between atoms: _116  and  _117
REMARK   50  A    between atoms: _119  and  _121
REMARK   51  A    between atoms: _121  and  _122
REMARK   52  A    between atoms: _121  and  _124
REMARK   53  A    between atoms: _124  and  _125
REMARK   54  A    between atoms: _128  and  _130
REMARK   55  A    between atoms: _130  and  _131
REMARK   56  A    between atoms: _133  and  _135
REMARK   57  A    between atoms: _135  and  _136
REMARK   58  A    between atoms: _138  and  _140
REMARK   59  A    between atoms: _140  and  _141
REMARK   60  A    between atoms: _140  and  _143
REMARK   61  A    between atoms: _143  and  _144
REMARK   62  A    between atoms: _150  and  _152
REMARK   63  A    between atoms: _152  and  _153
REMARK   64  A    between atoms: _152  and  _155
REMARK   65  A    between atoms: _155  and  _156
REMARK   66  A    between atoms: _159  and  _161
REMARK   67  A    between atoms: _161  and  _162
REMARK   68  A    between atoms: _161  and  _164
REMARK   69  A    between atoms: _164  and  _165
REMARK   70  A    between atoms: _168  and  _170
REMARK   71  A    between atoms: _170  and  _171
REMARK   72  A    between atoms: _170  and  _173
REMARK   73  A    between atoms: _173  and  _174
REMARK   74  A    between atoms: _178  and  _179
REMARK   75  A    between atoms: _184  and  _186
REMARK   76  A    between atoms: _186  and  _187
REMARK   77  A    between atoms: _186  and  _189
REMARK   78  A    between atoms: _192  and  _194
REMARK   79  A    between atoms: _194  and  _195
REMARK   80  A    between atoms: _194  and  _197
REMARK   81  A    between atoms: _197  and  _198
REMARK   82  A    between atoms: _203  and  _205
REMARK   83  A    between atoms: _205  and  _206
REMARK   84  A    between atoms: _205  and  _208
REMARK   85  A    between atoms: _208  and  _209
REMARK   86  A    between atoms: _212  and  _214
REMARK   87  A    between atoms: _214  and  _215
REMARK   88  A    between atoms: _214  and  _217
REMARK   89  A    between atoms: _217  and  _218
REMARK   90  A    between atoms: _221  and  _223
REMARK   91  A    between atoms: _223  and  _224
REMARK   92  A    between atoms: _226  and  _228
REMARK   93  A    between atoms: _228  and  _229
REMARK   94  A    between atoms: _228  and  _231
REMARK   95  A    between atoms: _231  and  _232
REMARK   96  A    between atoms: _232  and  _233
REMARK   97  A    between atoms: _233  and  _234
REMARK   98  A    between atoms: _243  and  _245
REMARK   99  A    between atoms: _245  and  _246
REMARK  100  A    between atoms: _245  and  _248
REMARK  101  A    between atoms: _248  and  _249
REMARK  102  A    between atoms: _254  and  _256
REMARK  103  A    between atoms: _256  and  _257
REMARK  104  A    between atoms: _256  and  _259
REMARK  105  A    between atoms: _259  and  _260
REMARK  106  A    between atoms: _260  and  _261
REMARK  107  A    between atoms: _261  and  _262
REMARK  108  A    between atoms: _271  and  _273
REMARK  109  A    between atoms: _273  and  _274
REMARK  110  A    between atoms: _273  and  _276
REMARK  111  A    between atoms: _276  and  _277
REMARK  112  A    between atoms: _280  and  _282
REMARK  113  A    between atoms: _282  and  _283
REMARK  114  A    between atoms: _282  and  _285
REMARK  115  A    between atoms: _285  and  _286
REMARK  116  A    between atoms: _289  and  _291
REMARK  117  A    between atoms: _291  and  _292
REMARK  118  A    between atoms: _291  and  _294
REMARK  119  A    between atoms: _294  and  _295
REMARK  120  A    between atoms: _298  and  _300
REMARK  121  A    between atoms: _300  and  _301
REMARK  122  A    between atoms: _300  and  _303
REMARK  123  A    between atoms: _303  and  _304
REMARK  124  A    between atoms: _307  and  _309
REMARK  125  A    between atoms: _309  and  _310
REMARK  126  A    between atoms: _312  and  _314
REMARK  127  A    between atoms: _314  and  _315
REMARK  128  A    between atoms: _318  and  _320
REMARK  129  A    between atoms: _320  and  _321
REMARK  130  A    between atoms: _320  and  _323
REMARK  131  A    between atoms: _323  and  _324
REMARK  132  A    between atoms: _327  and  _329
REMARK  133  A    between atoms: _329  and  _330
REMARK  134  A    between atoms: _329  and  _332
REMARK  135  A    between atoms: _332  and  _333
REMARK  136  A    between atoms: _336  and  _338
REMARK  137  A    between atoms: _338  and  _339
REMARK  138  A    between atoms: _338  and  _341
REMARK  139  A    between atoms: _341  and  _342
REMARK  140  A    between atoms: _345  and  _347
REMARK  141  A    between atoms: _347  and  _348
REMARK  142  A    between atoms: _347  and  _350
REMARK  143  A    between atoms: _353  and  _355
REMARK  144  A    between atoms: _355  and  _356
REMARK  145  A    between atoms: _355  and  _358
REMARK  146  A    between atoms: _358  and  _359
REMARK  147  A    between atoms: _359  and  _360
REMARK  148  A    between atoms: _360  and  _361
REMARK  149  A    between atoms: _361  and  _362
REMARK  150  A    between atoms: _366  and  _368
REMARK  151  A    between atoms: _368  and  _369
REMARK  152  A    between atoms: _368  and  _371
REMARK  153  A    between atoms: _371  and  _372
REMARK  154  A    between atoms: _372  and  _373
REMARK  155  A    between atoms: _375  and  _377
REMARK  156  A    between atoms: _377  and  _378
REMARK  157  A    between atoms: _377  and  _380
REMARK  158  A    between atoms: _380  and  _381
REMARK  159  A    between atoms: _384  and  _386
REMARK  160  A    between atoms: _386  and  _387
REMARK  161  A    between atoms: _389  and  _391
REMARK  162  A    between atoms: _391  and  _392
REMARK  163  A    between atoms: _394  and  _396
REMARK  164  A    between atoms: _396  and  _397
REMARK  165  A    between atoms: _396  and  _399
REMARK  166  A    between atoms: _399  and  _400
REMARK  167  A    between atoms: _403  and  _405
REMARK  168  A    between atoms: _405  and  _406
REMARK  169  A    between atoms: _408  and  _410
REMARK  170  A    between atoms: _410  and  _411
REMARK  171  A    between atoms: _413  and  _415
REMARK  172  A    between atoms: _415  and  _416
REMARK  173  A    between atoms: _415  and  _418
REMARK  174  A    between atoms: _418  and  _419
REMARK  175  A    between atoms: _425  and  _427
REMARK  176  A    between atoms: _427  and  _428
REMARK  177  A    between atoms: _427  and  _430
REMARK  178  A    between atoms: _430  and  _431
REMARK  179  A    between atoms: _434  and  _436
REMARK  180  A    between atoms: _436  and  _437
REMARK  181  A    between atoms: _436  and  _439
REMARK  182  A    between atoms: _442  and  _444
REMARK  183  A    between atoms: _444  and  _445
REMARK  184  A    between atoms: _444  and  _447
REMARK  185  A    between atoms: _447  and  _448
REMARK  186  A    between atoms: _451  and  _453
REMARK  187  A    between atoms: _453  and  _454
REMARK  188  A    between atoms: _453  and  _456
REMARK  189  A    between atoms: _456  and  _457
REMARK  190  A    between atoms: _461  and  _462
REMARK  191  A    between atoms: _467  and  _469
REMARK  192  A    between atoms: _469  and  _470
REMARK  193  A    between atoms: _469  and  _472
REMARK  194  A    between atoms: _475  and  _477
REMARK  195  A    between atoms: _477  and  _478
REMARK  196  A    between atoms: _477  and  _480
REMARK  197  A    between atoms: _480  and  _481
REMARK  198  A    between atoms: _486  and  _488
REMARK  199  A    between atoms: _488  and  _489
REMARK  200  A    between atoms: _488  and  _491
REMARK  201  A    between atoms: _491  and  _492
REMARK  202  A    between atoms: _495  and  _497
REMARK  203  A    between atoms: _497  and  _498
REMARK  204  A    between atoms: _497  and  _500
REMARK  205  A    between atoms: _500  and  _501
REMARK  206  A    between atoms: _504  and  _506
REMARK  207  A    between atoms: _506  and  _507
REMARK  208  A    between atoms: _509  and  _511
REMARK  209  A    between atoms: _511  and  _512
REMARK  210  A    between atoms: _511  and  _514
REMARK  211  A    between atoms: _514  and  _515
REMARK  212  A    between atoms: _515  and  _516
REMARK  213  A    between atoms: _516  and  _517
REMARK  214  A    between atoms: _526  and  _528
REMARK  215  A    between atoms: _528  and  _529
REMARK  216  A    between atoms: _528  and  _531
REMARK  217  A    between atoms: _531  and  _532
REMARK                            x       y       z     vdW  Elec       q    Type
REMARK                         _______ _______ _______ _____ _____    ______ ____
ROOT
ATOM      1  NE  ARG A   1       6.499   8.609  11.362  0.00  0.00    -0.265 N 
ATOM      2  HE  ARG A   1       5.480   8.754  11.511  0.00  0.00    +0.259 HD
ATOM      3  CZ  ARG A   1       6.878   7.916  10.295  0.00  0.00    +0.342 C 
ATOM      4  NH2 ARG A   1       8.170   7.700  10.067  0.00  0.00    -0.292 N 
ATOM      5 HH21 ARG A   1       8.884   8.074  10.725  0.00  0.00    +0.255 HD
ATOM      6 HH22 ARG A   1       8.467   7.157   9.231  0.00  0.00    +0.255 HD
ATOM      7  NH1 ARG A   1       5.961   7.453   9.454  0.00  0.00    -0.292 N 
ATOM      8 HH11 ARG A   1       4.953   7.634   9.633  0.00  0.00    +0.255 HD
ATOM      9 HH12 ARG A   1       6.251   6.909   8.616  0.00  0.00    +0.255 HD
ENDROOT
BRANCH   1  10
ATOM     10  CD  ARG A   1       7.418   9.179  12.338  0.00  0.00    +0.174 C 
BRANCH  10  11
ATOM     11  CG  ARG A   1       6.658   9.867  13.453  0.00  0.00    +0.045 C 
BRANCH  11  12
ATOM     12  CB  ARG A   1       7.573  10.278  14.555  0.00  0.00    +0.029 C 
BRANCH  12  13
ATOM     13  CA  ARG A   1       6.847  10.916  15.746  0.00  0.00    +0.133 C 
BRANCH  13  14
ATOM     14  N   ARG A   1       6.193  12.164  15.347  0.00  0.00    -0.239 NA
ATOM     15  H   ARG A   1       6.256  12.488  14.361  0.00  0.00    +0.142 HD
ENDBRANCH  13  14
BRANCH  13  16
ATOM     16  C   ARG A   1       7.872  11.279  16.819  0.00  0.00    +0.224 C 
ATOM     17  O   ARG A   1       8.593  12.279  16.679  0.00  0.00    -0.287 OA
ENDBRANCH  13  16
ENDBRANCH  12  13
ENDBRANCH  11  12
ENDBRANCH  10  11
ENDBRANCH   1  10
TORSDOF 6
REMARK  Name = ../refined-set-2016/1z1h/1z1h_pocket.pdb
REMARK  217 active torsions:
REMARK  status: ('A' for Active; 'I' for Inactive)
REMARK    1  A    between atoms: _1  and  _3
REMARK    2  A    between atoms: _3  and  _4
REMARK    3  A    between atoms: _3  and  _6
REMARK    4  A    between atoms: _6  and  _7
REMARK    5  A    between atoms: _7  and  _8
REMARK    6  A    between atoms: _8  and  _9
REMARK    7  A    between atoms: _18  and  _20
REMARK    8  A    between atoms: _20  and  _21
REMARK    9  A    between atoms: _20  and  _23
REMARK   10  A    between atoms: _23  and  _24
REMARK   11  A    between atoms: _27  and  _29
REMARK   12  A    between atoms: _29  and  _30
REMARK   13  A    between atoms: _29  and  _32
REMARK   14  A    between atoms: _32  and  _33
REMARK   15  A    between atoms: _36  and  _38
REMARK   16  A    between atoms: _38  and  _39
REMARK   17  A    between atoms: _38  and  _41
REMARK   18  A    between atoms: _41  and  _42
REMARK   19  A    between atoms: _45  and  _47
REMARK   20  A    between atoms: _47  and  _48
REMARK   21  A    between atoms: _47  and  _50
REMARK   22  A    between atoms: _50  and  _51
REMARK   23  A    between atoms: _54  and  _56
REMARK   24  A    between atoms: _56  and  _57
REMARK   25  A    between atoms: _59  and  _61
REMARK   26  A    between atoms: _61  and  _62
REMARK   27  A    between atoms: _65  and  _67
REMARK   28  A    between atoms: _67  and  _68
REMARK   29  A    between atoms: _67  and  _70
REMARK   30  A    between atoms: _70  and  _71
REMARK   31  A    between atoms: _74  and  _76
REMARK   32  A    between atoms: _76  and  _77
REMARK   33  A    between atoms: _76  and  _79
REMARK   34  A    between atoms: _79  and  _80
REMARK   35  A    between atoms: _83  and  _85
REMARK   36  A    between atoms: _85  and  _86
REMARK   37  A    between atoms: _85  and  _88
REMARK   38  A    between atoms: _88  and  _89
REMARK   39  A    between atoms: _92  and  _94
REMARK   40  A    between atoms: _94  and  _95
REMARK   41  A    between atoms: _94  and  _97
REMARK   42  A    between atoms: _100  and  _102
REMARK   43  A    between atoms: _102  and  _103
REMARK   44  A    between atoms: _102  and  _105
REMARK   45  A    between atoms: _105  and  _106
REMARK   46  A    between atoms: _109  and  _111
REMARK   47  A    between atoms: _111  and  _112
REMARK   48  A    between atoms: _114  and  _116
REMARK   49  A    between atoms: _116  and  _117
REMARK   50  A    between atoms: _119  and  _121
REMARK   51  A    between atoms: _121  and  _122
REMARK   52  A    between atoms: _121  and  _124
REMARK   53  A    between atoms: _124  and  _125
REMARK   54  A    between atoms: _128  and  _130
REMARK   55  A    between atoms: _130  and  _131
REMARK   56  A    between atoms: _133  and  _135
REMARK   57  A    between atoms: _135  and  _136
REMARK   58  A    between atoms: _138  and  _140
REMARK   59  A    between atoms: _140  and  _141
REMARK   60  A    between atoms: _140  and  _143
REMARK   61  A    between atoms: _143  and  _144
REMARK   62  A    between atoms: _150  and  _152
REMARK   63  A    between atoms: _152  and  _153
REMARK   64  A    between atoms: _152  and  _155
REMARK   65  A    between atoms: _155  and  _156
REMARK   66  A    between atoms: _159  and  _161
REMARK   67  A    between atoms: _161  and  _162
REMARK   68  A    between atoms: _161  and  _164
REMARK   69  A    between atoms: _164  and  _165
REMARK   70  A    between atoms: _168  and  _170
REMARK   71  A    between atoms: _170  and  _171
REMARK   72  A    between atoms: _170  and  _173
REMARK   73  A    between atoms: _173  and  _174
REMARK   74  A    between atoms: _178  and  _179
REMARK   75  A    between atoms: _184  and  _186
REMARK   76  A    between atoms: _186  and  _187
REMARK   77  A    between atoms: _186  and  _189
REMARK   78  A    between atoms: _192  and  _194
REMARK   79  A    between atoms: _194  and  _195
REMARK   80  A    between atoms: _194  and  _197
REMARK   81  A    between atoms: _197  and  _198
REMARK   82  A    between atoms: _203  and  _205
REMARK   83  A    between atoms: _205  and  _206
REMARK   84  A    between atoms: _205  and  _208
REMARK   85  A    between atoms: _208  and  _209
REMARK   86  A    between atoms: _212  and  _214
REMARK   87  A    between atoms: _214  and  _215
REMARK   88  A    between atoms: _214  and  _217
REMARK   89  A    between atoms: _217  and  _218
REMARK   90  A    between atoms: _221  and  _223
REMARK   91  A    between atoms: _223  and  _224
REMARK   92  A    between atoms: _226  and  _228
REMARK   93  A    between atoms: _228  and  _229
REMARK   94  A    between atoms: _228  and  _231
REMARK   95  A    between atoms: _231  and  _232
REMARK   96  A    between atoms: _232  and  _233
REMARK   97  A    between atoms: _233  and  _234
REMARK   98  A    between atoms: _243  and  _245
REMARK   99  A    between atoms: _245  and  _246
REMARK  100  A    between atoms: _245  and  _248
REMARK  101  A    between atoms: _248  and  _249
REMARK  102  A    between atoms: _254  and  _256
REMARK  103  A    between atoms: _256  and  _257
REMARK  104  A    between atoms: _256  and  _259
REMARK  105  A    between atoms: _259  and  _260
REMARK  106  A    between atoms: _260  and  _261
REMARK  107  A    between atoms: _261  and  _262
REMARK  108  A    between atoms: _271  and  _273
REMARK  109  A    between atoms: _273  and  _274
REMARK  110  A    between atoms: _273  and  _276
REMARK  111  A    between atoms: _276  and  _277
REMARK  112  A    between atoms: _280  and  _282
REMARK  113  A    between atoms: _282  and  _283
REMARK  114  A    between atoms: _282  and  _285
REMARK  115  A    between atoms: _285  and  _286
REMARK  116  A    between atoms: _289  and  _291
REMARK  117  A    between atoms: _291  and  _292
REMARK  118  A    between atoms: _291  and  _294
REMARK  119  A    between atoms: _294  and  _295
REMARK  120  A    between atoms: _298  and  _300
REMARK  121  A    between atoms: _300  and  _301
REMARK  122  A    between atoms: _300  and  _303
REMARK  123  A    between atoms: _303  and  _304
REMARK  124  A    between atoms: _307  and  _309
REMARK  125  A    between atoms: _309  and  _310
REMARK  126  A    between atoms: _312  and  _314
REMARK  127  A    between atoms: _314  and  _315
REMARK  128  A    between atoms: _318  and  _320
REMARK  129  A    between atoms: _320  and  _321
REMARK  130  A    between atoms: _320  and  _323
REMARK  131  A    between atoms: _323  and  _324
REMARK  132  A    between atoms: _327  and  _329
REMARK  133  A    between atoms: _329  and  _330
REMARK  134  A    between atoms: _329  and  _332
REMARK  135  A    between atoms: _332  and  _333
REMARK  136  A    between atoms: _336  and  _338
REMARK  137  A    between atoms: _338  and  _339
REMARK  138  A    between atoms: _338  and  _341
REMARK  139  A    between atoms: _341  and  _342
REMARK  140  A    between atoms: _345  and  _347
REMARK  141  A    between atoms: _347  and  _348
REMARK  142  A    between atoms: _347  and  _350
REMARK  143  A    between atoms: _353  and  _355
REMARK  144  A    between atoms: _355  and  _356
REMARK  145  A    between atoms: _355  and  _358
REMARK  146  A    between atoms: _358  and  _359
REMARK  147  A    between atoms: _359  and  _360
REMARK  148  A    between atoms: _360  and  _361
REMARK  149  A    between atoms: _361  and  _362
REMARK  150  A    between atoms: _366  and  _368
REMARK  151  A    between atoms: _368  and  _369
REMARK  152  A    between atoms: _368  and  _371
REMARK  153  A    between atoms: _371  and  _372
REMARK  154  A    between atoms: _372  and  _373
REMARK  155  A    between atoms: _375  and  _377
REMARK  156  A    between atoms: _377  and  _378
REMARK  157  A    between atoms: _377  and  _380
REMARK  158  A    between atoms: _380  and  _381
REMARK  159  A    between atoms: _384  and  _386
REMARK  160  A    between atoms: _386  and  _387
REMARK  161  A    between atoms: _389  and  _391
REMARK  162  A    between atoms: _391  and  _392
REMARK  163  A    between atoms: _394  and  _396
REMARK  164  A    between atoms: _396  and  _397
REMARK  165  A    between atoms: _396  and  _399
REMARK  166  A    between atoms: _399  and  _400
REMARK  167  A    between atoms: _403  and  _405
REMARK  168  A    between atoms: _405  and  _406
REMARK  169  A    between atoms: _408  and  _410
REMARK  170  A    between atoms: _410  and  _411
REMARK  171  A    between atoms: _413  and  _415
REMARK  172  A    between atoms: _415  and  _416
REMARK  173  A    between atoms: _415  and  _418
REMARK  174  A    between atoms: _418  and  _419
REMARK  175  A    between atoms: _425  and  _427
REMARK  176  A    between atoms: _427  and  _428
REMARK  177  A    between atoms: _427  and  _430
REMARK  178  A    between atoms: _430  and  _431
REMARK  179  A    between atoms: _434  and  _436
REMARK  180  A    between atoms: _436  and  _437
REMARK  181  A    between atoms: _436  and  _439
REMARK  182  A    between atoms: _442  and  _444
REMARK  183  A    between atoms: _444  and  _445
REMARK  184  A    between atoms: _444  and  _447
REMARK  185  A    between atoms: _447  and  _448
REMARK  186  A    between atoms: _451  and  _453
REMARK  187  A    between atoms: _453  and  _454
REMARK  188  A    between atoms: _453  and  _456
REMARK  189  A    between atoms: _456  and  _457
REMARK  190  A    between atoms: _461  and  _462
REMARK  191  A    between atoms: _467  and  _469
REMARK  192  A    between atoms: _469  and  _470
REMARK  193  A    between atoms: _469  and  _472
REMARK  194  A    between atoms: _475  and  _477
REMARK  195  A    between atoms: _477  and  _478
REMARK  196  A    between atoms: _477  and  _480
REMARK  197  A    between atoms: _480  and  _481
REMARK  198  A    between atoms: _486  and  _488
REMARK  199  A    between atoms: _488  and  _489
REMARK  200  A    between atoms: _488  and  _491
REMARK  201  A    between atoms: _491  and  _492
REMARK  202  A    between atoms: _495  and  _497
REMARK  203  A    between atoms: _497  and  _498
REMARK  204  A    between atoms: _497  and  _500
REMARK  205  A    between atoms: _500  and  _501
REMARK  206  A    between atoms: _504  and  _506
REMARK  207  A    between atoms: _506  and  _507
REMARK  208  A    between atoms: _509  and  _511
REMARK  209  A    between atoms: _511  and  _512
REMARK  210  A    between atoms: _511  and  _514
REMARK  211  A    between atoms: _514  and  _515
REMARK  212  A    between atoms: _515  and  _516
REMARK  213  A    between atoms: _516  and  _517
REMARK  214  A    between atoms: _526  and  _528
REMARK  215  A    between atoms: _528  and  _529
REMARK  216  A    between atoms: _528  and  _531
REMARK  217  A    between atoms: _531  and  _532
REMARK                            x       y       z     vdW  Elec       q    Type
REMARK                         _______ _______ _______ _____ _____    ______ ____
ROOT
ATOM      1  C   GLY A   5       5.742  -1.884  20.358  0.00  0.00    +0.243 C 
ATOM      2  N   ALA A   6       7.017  -1.606  20.589  0.00  0.00    -0.297 N 
ATOM      3  H   ALA A   6       7.274  -0.724  21.077  0.00  0.00    +0.150 HD
ATOM      4  O   GLY A   5       5.394  -2.933  19.823  0.00  0.00    -0.273 OA
ENDROOT
BRANCH   2   5
ATOM      5  CA  ALA A   6       8.067  -2.534  20.161  0.00  0.00    +0.149 C 
ATOM      6  CB  ALA A   6       9.157  -1.763  19.385  0.00  0.00    +0.031 C 
BRANCH   5   7
ATOM      7  C   ALA A   6       8.678  -3.259  21.353  0.00  0.00    +0.241 C 
ATOM      8  O   ALA A   6       9.174  -2.619  22.277  0.00  0.00    -0.273 OA
ATOM      9  N   ASP A   7       8.638  -4.590  21.344  0.00  0.00    -0.297 N 
ATOM     10  H   ASP A   7       8.199  -5.092  20.546  0.00  0.00    +0.150 HD
BRANCH   9  11
ATOM     11  CA  ASP A   7       9.213  -5.348  22.459  0.00  0.00    +0.160 C 
BRANCH  11  12
ATOM     12  C   ASP A   7      10.732  -5.244  22.440  0.00  0.00    +0.241 C 
ATOM     13  O   ASP A   7      11.372  -5.188  23.495  0.00  0.00    -0.273 OA
ATOM     14  N   ASP A   8      11.291  -5.206  21.234  0.00  0.00    -0.297 N 
ATOM     15  H   ASP A   8      10.669  -5.188  20.401  0.00  0.00    +0.150 HD
BRANCH  14  16
ATOM     16  CA  ASP A   8      12.734  -5.188  21.022  0.00  0.00    +0.160 C 
BRANCH  16  17
ATOM     17  C   ASP A   8      13.188  -3.915  20.347  0.00  0.00    +0.241 C 
ATOM     18  N   THR A   9      14.500  -3.671  20.373  0.00  0.00    -0.295 N 
ATOM     19  H   THR A   9      15.111  -4.343  20.879  0.00  0.00    +0.150 HD
ATOM     20  O   ASP A   8      12.375  -3.197  19.791  0.00  0.00    -0.273 OA
BRANCH  18  21
ATOM     21  CA  THR A   9      15.133  -2.516  19.733  0.00  0.00    +0.176 C 
BRANCH  21  22
ATOM     22  C   THR A   9      15.693  -2.953  18.370  0.00  0.00    +0.243 C 
ATOM     23  O   THR A   9      16.467  -3.904  18.281  0.00  0.00    -0.273 OA
ATOM     24  N   VAL A  10      15.292  -2.264  17.308  0.00  0.00    -0.298 N 
ATOM     25  H   VAL A  10      14.665  -1.445  17.441  0.00  0.00    +0.150 HD
BRANCH  24  26
ATOM     26  CA  VAL A  10      15.711  -2.630  15.955  0.00  0.00    +0.137 C 
BRANCH  26  27
ATOM     27  CB  VAL A  10      14.493  -3.052  15.092  0.00  0.00    +0.026 C 
ATOM     28  CG2 VAL A  10      13.620  -4.029  15.880  0.00  0.00    +0.002 C 
ATOM     29  CG1 VAL A  10      14.953  -3.699  13.796  0.00  0.00    +0.002 C 
ENDBRANCH  26  27
BRANCH  26  30
ATOM     30  C   VAL A  10      16.419  -1.483  15.284  0.00  0.00    +0.227 C 
ATOM     31  O   VAL A  10      15.857  -0.404  15.116  0.00  0.00    -0.286 OA
ENDBRANCH  26  30
ENDBRANCH  24  26
ENDBRANCH  21  22
BRANCH  21  32
ATOM     32  CB  THR A   9      16.249  -1.959  20.640  0.00  0.00    +0.137 C 
ATOM     33  CG2 THR A   9      17.065  -0.879  19.946  0.00  0.00    +0.034 C 
BRANCH  32  34
ATOM     34  OG1 THR A   9      15.636  -1.380  21.793  0.00  0.00    -0.382 OA
ATOM     35  HG1 THR A   9      15.119  -2.074  22.274  0.00  0.00    +0.210 HD
ENDBRANCH  32  34
ENDBRANCH  21  32
ENDBRANCH  18  21
ENDBRANCH  16  17
BRANCH  16  36
ATOM     36  CB  ASP A   8      13.138  -6.362  20.106  0.00  0.00    +0.143 C 
BRANCH  36  37
ATOM     37  CG  ASP A   8      12.508  -7.686  20.519  0.00  0.00    +0.367 C 
ATOM     38  OD2 ASP A   8      12.732  -8.125  21.665  0.00  0.00    -0.246 OA
ATOM     39  OD1 ASP A   8      11.788  -8.296  19.697  0.00  0.00    -0.246 OA
ENDBRANCH  36  37
ENDBRANCH  16  36
ENDBRANCH  14  16
ENDBRANCH  11  12
BRANCH  11  40
ATOM     40  CB  ASP A   7       8.879  -6.843  22.374  0.00  0.00    +0.143 C 
BRANCH  40  41
ATOM     41  CG  ASP A   7       7.397  -7.123  22.292  0.00  0.00    +0.367 C 
ATOM     42  OD2 ASP A   7       6.598  -6.395  22.918  0.00  0.00    -0.246 OA
ATOM     43  OD1 ASP A   7       7.037  -8.104  21.609  0.00  0.00    -0.246 OA
ENDBRANCH  40  41
ENDBRANCH  11  40
ENDBRANCH   9  11
ENDBRANCH   5   7
ENDBRANCH   2   5
BRANCH   1  44
ATOM     44  CA  GLY A   5       4.713  -0.854  20.799  0.00  0.00    +0.176 C 
BRANCH  44  47
ATOM     45  C   THR A   4       5.546   0.329  22.732  0.00  0.00    +0.243 C 
ATOM     46  O   THR A   4       5.219  -0.598  23.482  0.00  0.00    -0.273 OA
ATOM     47  N   GLY A   5       5.337   0.301  21.418  0.00  0.00    -0.295 N 
ATOM     48  H   GLY A   5       5.622   1.111  20.832  0.00  0.00    +0.150 HD
BRANCH  45  49
ATOM     49  CA  THR A   4       6.220   1.595  23.283  0.00  0.00    +0.176 C 
BRANCH  49  51
ATOM     50  C   ASP A   3       7.887   1.997  21.515  0.00  0.00    +0.241 C 
ATOM     51  N   THR A   4       6.826   2.403  22.216  0.00  0.00    -0.295 N 
ATOM     52  H   THR A   4       6.411   3.331  21.997  0.00  0.00    +0.150 HD
ATOM     53  O   ASP A   3       8.448   0.899  21.686  0.00  0.00    -0.273 OA
BRANCH  50  54
ATOM     54  CA  ASP A   3       8.388   2.956  20.441  0.00  0.00    +0.160 C 
BRANCH  54  56
ATOM     55  C   LEU A   2       9.505   5.081  20.790  0.00  0.00    +0.241 C 
ATOM     56  N   ASP A   3       9.553   3.757  20.811  0.00  0.00    -0.297 N 
ATOM     57  H   ASP A   3      10.433   3.281  21.095  0.00  0.00    +0.150 HD
ATOM     58  O   LEU A   2       8.460   5.706  20.606  0.00  0.00    -0.273 OA
BRANCH  55  59
ATOM     59  CA  LEU A   2      10.813   5.813  21.041  0.00  0.00    +0.149 C 
BRANCH  59  61
ATOM     60  C   LEU A   1      11.633   5.675  18.731  0.00  0.00    +0.238 C 
ATOM     61  N   LEU A   2      11.097   6.396  19.723  0.00  0.00    -0.297 N 
ATOM     62  H   LEU A   2      10.875   7.398  19.556  0.00  0.00    +0.150 HD
ATOM     63  O   LEU A   1      11.981   4.507  18.876  0.00  0.00    -0.274 OA
BRANCH  60  64
ATOM     64  CA  LEU A   1      11.830   6.374  17.379  0.00  0.00    +0.145 C 
BRANCH  64  65
ATOM     65  N   LEU A   1      13.194   6.200  16.899  0.00  0.00    -0.238 NA
ATOM     66  H   LEU A   1      13.408   5.348  16.342  0.00  0.00    +0.142 HD
ENDBRANCH  64  65
BRANCH  64  67
ATOM     67  CB  LEU A   1      10.895   5.759  16.330  0.00  0.00    +0.026 C 
BRANCH  67  68
ATOM     68  CG  LEU A   1       9.400   6.030  16.280  0.00  0.00    +0.002 C 
ATOM     69  CD2 LEU A   1       9.129   7.477  15.944  0.00  0.00    +0.000 C 
ATOM     70  CD1 LEU A   1       8.806   5.135  15.216  0.00  0.00    +0.000 C 
ENDBRANCH  67  68
ENDBRANCH  64  67
ENDBRANCH  60  64
ENDBRANCH  59  61
BRANCH  59  71
ATOM     71  CB  LEU A   2      10.615   6.914  22.082  0.00  0.00    +0.029 C 
BRANCH  71  72
ATOM     72  CG  LEU A   2      11.831   7.450  22.862  0.00  0.00    +0.002 C 
ATOM     73  CD2 LEU A   2      11.715   8.962  22.966  0.00  0.00    +0.000 C 
ATOM     74  CD1 LEU A   2      13.141   7.027  22.234  0.00  0.00    +0.000 C 
ENDBRANCH  71  72
ENDBRANCH  59  71
ENDBRANCH  55  59
ENDBRANCH  54  56
BRANCH  54  75
ATOM     75  CB  ASP A   3       8.767   2.174  19.178  0.00  0.00    +0.143 C 
BRANCH  75  76
ATOM     76  CG  ASP A   3       7.584   1.529  18.501  0.00  0.00    +0.367 C 
ATOM     77  OD2 ASP A   3       6.498   1.458  19.108  0.00  0.00    -0.246 OA
ATOM     78  OD1 ASP A   3       7.758   1.090  17.347  0.00  0.00    -0.246 OA
ENDBRANCH  75  76
ENDBRANCH  54  75
ENDBRANCH  50  54
ENDBRANCH  49  51
BRANCH  49  79
ATOM     79  CB  THR A   4       5.158   2.378  24.029  0.00  0.00    +0.137 C 
ATOM     80  CG2 THR A   4       5.769   3.591  24.726  0.00  0.00    +0.034 C 
BRANCH  79  81
ATOM     81  OG1 THR A   4       4.167   2.813  23.093  0.00  0.00    -0.382 OA
ATOM     82  HG1 THR A   4       3.759   2.024  22.656  0.00  0.00    +0.210 HD
ENDBRANCH  79  81
ENDBRANCH  49  79
ENDBRANCH  45  49
ENDBRANCH  44  47
ENDBRANCH   1  44
TORSDOF 35
REMARK  Name = ../refined-set-2016/1z1h/1z1h_pocket.pdb
REMARK  217 active torsions:
REMARK  status: ('A' for Active; 'I' for Inactive)
REMARK    1  A    between atoms: _1  and  _3
REMARK    2  A    between atoms: _3  and  _4
REMARK    3  A    between atoms: _3  and  _6
REMARK    4  A    between atoms: _6  and  _7
REMARK    5  A    between atoms: _7  and  _8
REMARK    6  A    between atoms: _8  and  _9
REMARK    7  A    between atoms: _18  and  _20
REMARK    8  A    between atoms: _20  and  _21
REMARK    9  A    between atoms: _20  and  _23
REMARK   10  A    between atoms: _23  and  _24
REMARK   11  A    between atoms: _27  and  _29
REMARK   12  A    between atoms: _29  and  _30
REMARK   13  A    between atoms: _29  and  _32
REMARK   14  A    between atoms: _32  and  _33
REMARK   15  A    between atoms: _36  and  _38
REMARK   16  A    between atoms: _38  and  _39
REMARK   17  A    between atoms: _38  and  _41
REMARK   18  A    between atoms: _41  and  _42
REMARK   19  A    between atoms: _45  and  _47
REMARK   20  A    between atoms: _47  and  _48
REMARK   21  A    between atoms: _47  and  _50
REMARK   22  A    between atoms: _50  and  _51
REMARK   23  A    between atoms: _54  and  _56
REMARK   24  A    between atoms: _56  and  _57
REMARK   25  A    between atoms: _59  and  _61
REMARK   26  A    between atoms: _61  and  _62
REMARK   27  A    between atoms: _65  and  _67
REMARK   28  A    between atoms: _67  and  _68
REMARK   29  A    between atoms: _67  and  _70
REMARK   30  A    between atoms: _70  and  _71
REMARK   31  A    between atoms: _74  and  _76
REMARK   32  A    between atoms: _76  and  _77
REMARK   33  A    between atoms: _76  and  _79
REMARK   34  A    between atoms: _79  and  _80
REMARK   35  A    between atoms: _83  and  _85
REMARK   36  A    between atoms: _85  and  _86
REMARK   37  A    between atoms: _85  and  _88
REMARK   38  A    between atoms: _88  and  _89
REMARK   39  A    between atoms: _92  and  _94
REMARK   40  A    between atoms: _94  and  _95
REMARK   41  A    between atoms: _94  and  _97
REMARK   42  A    between atoms: _100  and  _102
REMARK   43  A    between atoms: _102  and  _103
REMARK   44  A    between atoms: _102  and  _105
REMARK   45  A    between atoms: _105  and  _106
REMARK   46  A    between atoms: _109  and  _111
REMARK   47  A    between atoms: _111  and  _112
REMARK   48  A    between atoms: _114  and  _116
REMARK   49  A    between atoms: _116  and  _117
REMARK   50  A    between atoms: _119  and  _121
REMARK   51  A    between atoms: _121  and  _122
REMARK   52  A    between atoms: _121  and  _124
REMARK   53  A    between atoms: _124  and  _125
REMARK   54  A    between atoms: _128  and  _130
REMARK   55  A    between atoms: _130  and  _131
REMARK   56  A    between atoms: _133  and  _135
REMARK   57  A    between atoms: _135  and  _136
REMARK   58  A    between atoms: _138  and  _140
REMARK   59  A    between atoms: _140  and  _141
REMARK   60  A    between atoms: _140  and  _143
REMARK   61  A    between atoms: _143  and  _144
REMARK   62  A    between atoms: _150  and  _152
REMARK   63  A    between atoms: _152  and  _153
REMARK   64  A    between atoms: _152  and  _155
REMARK   65  A    between atoms: _155  and  _156
REMARK   66  A    between atoms: _159  and  _161
REMARK   67  A    between atoms: _161  and  _162
REMARK   68  A    between atoms: _161  and  _164
REMARK   69  A    between atoms: _164  and  _165
REMARK   70  A    between atoms: _168  and  _170
REMARK   71  A    between atoms: _170  and  _171
REMARK   72  A    between atoms: _170  and  _173
REMARK   73  A    between atoms: _173  and  _174
REMARK   74  A    between atoms: _178  and  _179
REMARK   75  A    between atoms: _184  and  _186
REMARK   76  A    between atoms: _186  and  _187
REMARK   77  A    between atoms: _186  and  _189
REMARK   78  A    between atoms: _192  and  _194
REMARK   79  A    between atoms: _194  and  _195
REMARK   80  A    between atoms: _194  and  _197
REMARK   81  A    between atoms: _197  and  _198
REMARK   82  A    between atoms: _203  and  _205
REMARK   83  A    between atoms: _205  and  _206
REMARK   84  A    between atoms: _205  and  _208
REMARK   85  A    between atoms: _208  and  _209
REMARK   86  A    between atoms: _212  and  _214
REMARK   87  A    between atoms: _214  and  _215
REMARK   88  A    between atoms: _214  and  _217
REMARK   89  A    between atoms: _217  and  _218
REMARK   90  A    between atoms: _221  and  _223
REMARK   91  A    between atoms: _223  and  _224
REMARK   92  A    between atoms: _226  and  _228
REMARK   93  A    between atoms: _228  and  _229
REMARK   94  A    between atoms: _228  and  _231
REMARK   95  A    between atoms: _231  and  _232
REMARK   96  A    between atoms: _232  and  _233
REMARK   97  A    between atoms: _233  and  _234
REMARK   98  A    between atoms: _243  and  _245
REMARK   99  A    between atoms: _245  and  _246
REMARK  100  A    between atoms: _245  and  _248
REMARK  101  A    between atoms: _248  and  _249
REMARK  102  A    between atoms: _254  and  _256
REMARK  103  A    between atoms: _256  and  _257
REMARK  104  A    between atoms: _256  and  _259
REMARK  105  A    between atoms: _259  and  _260
REMARK  106  A    between atoms: _260  and  _261
REMARK  107  A    between atoms: _261  and  _262
REMARK  108  A    between atoms: _271  and  _273
REMARK  109  A    between atoms: _273  and  _274
REMARK  110  A    between atoms: _273  and  _276
REMARK  111  A    between atoms: _276  and  _277
REMARK  112  A    between atoms: _280  and  _282
REMARK  113  A    between atoms: _282  and  _283
REMARK  114  A    between atoms: _282  and  _285
REMARK  115  A    between atoms: _285  and  _286
REMARK  116  A    between atoms: _289  and  _291
REMARK  117  A    between atoms: _291  and  _292
REMARK  118  A    between atoms: _291  and  _294
REMARK  119  A    between atoms: _294  and  _295
REMARK  120  A    between atoms: _298  and  _300
REMARK  121  A    between atoms: _300  and  _301
REMARK  122  A    between atoms: _300  and  _303
REMARK  123  A    between atoms: _303  and  _304
REMARK  124  A    between atoms: _307  and  _309
REMARK  125  A    between atoms: _309  and  _310
REMARK  126  A    between atoms: _312  and  _314
REMARK  127  A    between atoms: _314  and  _315
REMARK  128  A    between atoms: _318  and  _320
REMARK  129  A    between atoms: _320  and  _321
REMARK  130  A    between atoms: _320  and  _323
REMARK  131  A    between atoms: _323  and  _324
REMARK  132  A    between atoms: _327  and  _329
REMARK  133  A    between atoms: _329  and  _330
REMARK  134  A    between atoms: _329  and  _332
REMARK  135  A    between atoms: _332  and  _333
REMARK  136  A    between atoms: _336  and  _338
REMARK  137  A    between atoms: _338  and  _339
REMARK  138  A    between atoms: _338  and  _341
REMARK  139  A    between atoms: _341  and  _342
REMARK  140  A    between atoms: _345  and  _347
REMARK  141  A    between atoms: _347  and  _348
REMARK  142  A    between atoms: _347  and  _350
REMARK  143  A    between atoms: _353  and  _355
REMARK  144  A    between atoms: _355  and  _356
REMARK  145  A    between atoms: _355  and  _358
REMARK  146  A    between atoms: _358  and  _359
REMARK  147  A    between atoms: _359  and  _360
REMARK  148  A    between atoms: _360  and  _361
REMARK  149  A    between atoms: _361  and  _362
REMARK  150  A    between atoms: _366  and  _368
REMARK  151  A    between atoms: _368  and  _369
REMARK  152  A    between atoms: _368  and  _371
REMARK  153  A    between atoms: _371  and  _372
REMARK  154  A    between atoms: _372  and  _373
REMARK  155  A    between atoms: _375  and  _377
REMARK  156  A    between atoms: _377  and  _378
REMARK  157  A    between atoms: _377  and  _380
REMARK  158  A    between atoms: _380  and  _381
REMARK  159  A    between atoms: _384  and  _386
REMARK  160  A    between atoms: _386  and  _387
REMARK  161  A    between atoms: _389  and  _391
REMARK  162  A    between atoms: _391  and  _392
REMARK  163  A    between atoms: _394  and  _396
REMARK  164  A    between atoms: _396  and  _397
REMARK  165  A    between atoms: _396  and  _399
REMARK  166  A    between atoms: _399  and  _400
REMARK  167  A    between atoms: _403  and  _405
REMARK  168  A    between atoms: _405  and  _406
REMARK  169  A    between atoms: _408  and  _410
REMARK  170  A    between atoms: _410  and  _411
REMARK  171  A    between atoms: _413  and  _415
REMARK  172  A    between atoms: _415  and  _416
REMARK  173  A    between atoms: _415  and  _418
REMARK  174  A    between atoms: _418  and  _419
REMARK  175  A    between atoms: _425  and  _427
REMARK  176  A    between atoms: _427  and  _428
REMARK  177  A    between atoms: _427  and  _430
REMARK  178  A    between atoms: _430  and  _431
REMARK  179  A    between atoms: _434  and  _436
REMARK  180  A    between atoms: _436  and  _437
REMARK  181  A    between atoms: _436  and  _439
REMARK  182  A    between atoms: _442  and  _444
REMARK  183  A    between atoms: _444  and  _445
REMARK  184  A    between atoms: _444  and  _447
REMARK  185  A    between atoms: _447  and  _448
REMARK  186  A    between atoms: _451  and  _453
REMARK  187  A    between atoms: _453  and  _454
REMARK  188  A    between atoms: _453  and  _456
REMARK  189  A    between atoms: _456  and  _457
REMARK  190  A    between atoms: _461  and  _462
REMARK  191  A    between atoms: _467  and  _469
REMARK  192  A    between atoms: _469  and  _470
REMARK  193  A    between atoms: _469  and  _472
REMARK  194  A    between atoms: _475  and  _477
REMARK  195  A    between atoms: _477  and  _478
REMARK  196  A    between atoms: _477  and  _480
REMARK  197  A    between atoms: _480  and  _481
REMARK  198  A    between atoms: _486  and  _488
REMARK  199  A    between atoms: _488  and  _489
REMARK  200  A    between atoms: _488  and  _491
REMARK  201  A    between atoms: _491  and  _492
REMARK  202  A    between atoms: _495  and  _497
REMARK  203  A    between atoms: _497  and  _498
REMARK  204  A    between atoms: _497  and  _500
REMARK  205  A    between atoms: _500  and  _501
REMARK  206  A    between atoms: _504  and  _506
REMARK  207  A    between atoms: _506  and  _507
REMARK  208  A    between atoms: _509  and  _511
REMARK  209  A    between atoms: _511  and  _512
REMARK  210  A    between atoms: _511  and  _514
REMARK  211  A    between atoms: _514  and  _515
REMARK  212  A    between atoms: _515  and  _516
REMARK  213  A    between atoms: _516  and  _517
REMARK  214  A    between atoms: _526  and  _528
REMARK  215  A    between atoms: _528  and  _529
REMARK  216  A    between atoms: _528  and  _531
REMARK  217  A    between atoms: _531  and  _532
REMARK                            x       y       z     vdW  Elec       q    Type
REMARK                         _______ _______ _______ _____ _____    ______ ____
ROOT
ATOM      1  C   GLY A   5       4.043  -6.651  11.262  0.00  0.00    +0.243 C 
ATOM      2  N   ILE A   6       3.427  -5.491  11.084  0.00  0.00    -0.297 N 
ATOM      3  H   ILE A   6       3.684  -4.670  11.669  0.00  0.00    +0.150 HD
ATOM      4  O   GLY A   5       3.750  -7.671  10.639  0.00  0.00    -0.273 OA
ENDROOT
BRANCH   2   5
ATOM      5  CA  ILE A   6       2.397  -5.368  10.076  0.00  0.00    +0.149 C 
BRANCH   5   6
ATOM      6  C   ILE A   6       3.113  -5.593   8.749  0.00  0.00    +0.241 C 
ATOM      7  O   ILE A   6       4.135  -4.957   8.465  0.00  0.00    -0.273 OA
ATOM      8  N   GLY A   7       2.608  -6.524   7.952  0.00  0.00    -0.295 N 
ATOM      9  H   GLY A   7       1.770  -7.069   8.239  0.00  0.00    +0.150 HD
BRANCH   8  10
ATOM     10  CA  GLY A   7       3.245  -6.768   6.672  0.00  0.00    +0.176 C 
BRANCH  10  11
ATOM     11  C   GLY A   7       4.019  -8.064   6.582  0.00  0.00    +0.243 C 
ATOM     12  N   GLY A   8       4.403  -8.624   7.723  0.00  0.00    -0.295 N 
ATOM     13  H   GLY A   8       4.170  -8.167   8.628  0.00  0.00    +0.150 HD
ATOM     14  O   GLY A   7       4.276  -8.544   5.486  0.00  0.00    -0.273 OA
BRANCH  12  15
ATOM     15  CA  GLY A   8       5.145  -9.869   7.713  0.00  0.00    +0.176 C 
BRANCH  15  16
ATOM     16  C   GLY A   8       6.379  -9.874   8.592  0.00  0.00    +0.243 C 
ATOM     17  O   GLY A   8       6.500  -9.081   9.534  0.00  0.00    -0.273 OA
ATOM     18  N   PHE A   9       7.312 -10.764   8.272  0.00  0.00    -0.297 N 
ATOM     19  H   PHE A   9       7.163 -11.385   7.451  0.00  0.00    +0.150 HD
BRANCH  18  20
ATOM     20  CA  PHE A   9       8.544 -10.890   9.049  0.00  0.00    +0.153 C 
BRANCH  20  21
ATOM     21  C   PHE A   9       9.780 -10.490   8.275  0.00  0.00    +0.241 C 
ATOM     22  N   ILE A  10      10.828 -10.090   8.991  0.00  0.00    -0.298 N 
ATOM     23  H   ILE A  10      10.742 -10.011  10.024  0.00  0.00    +0.150 HD
ATOM     24  O   PHE A   9       9.784 -10.523   7.050  0.00  0.00    -0.273 OA
BRANCH  22  25
ATOM     25  CA  ILE A  10      12.101  -9.759   8.347  0.00  0.00    +0.137 C 
BRANCH  25  26
ATOM     26  C   ILE A  10      13.172 -10.494   9.135  0.00  0.00    +0.227 C 
ATOM     27  O   ILE A  10      12.971 -10.826  10.311  0.00  0.00    -0.286 OA
ENDBRANCH  25  26
BRANCH  25  28
ATOM     28  CB  ILE A  10      12.459  -8.235   8.353  0.00  0.00    +0.026 C 
ATOM     29  CG2 ILE A  10      11.598  -7.469   7.343  0.00  0.00    +0.002 C 
BRANCH  28  30
ATOM     30  CG1 ILE A  10      12.327  -7.659   9.761  0.00  0.00    +0.002 C 
ATOM     31  CD1 ILE A  10      12.958  -6.278   9.866  0.00  0.00    +0.000 C 
ENDBRANCH  28  30
ENDBRANCH  25  28
ENDBRANCH  22  25
ENDBRANCH  20  21
BRANCH  20  32
ATOM     32  CB  PHE A   9       8.730 -12.333   9.515  0.00  0.00    +0.055 C 
BRANCH  32  33
ATOM     33  CG  PHE A   9       7.799 -12.748  10.620  0.00  0.00    -0.020 A 
ATOM     34  CD2 PHE A   9       8.300 -13.054  11.877  0.00  0.00    -0.004 A 
ATOM     35  CE2 PHE A   9       7.448 -13.464  12.903  0.00  0.00    -0.000 A 
ATOM     36  CZ  PHE A   9       6.077 -13.568  12.658  0.00  0.00    -0.000 A 
ATOM     37  CE1 PHE A   9       5.578 -13.260  11.397  0.00  0.00    -0.000 A 
ATOM     38  CD1 PHE A   9       6.426 -12.855  10.396  0.00  0.00    -0.004 A 
ENDBRANCH  32  33
ENDBRANCH  20  32
ENDBRANCH  18  20
ENDBRANCH  15  16
ENDBRANCH  12  15
ENDBRANCH  10  11
ENDBRANCH   8  10
ENDBRANCH   5   6
BRANCH   5  39
ATOM     39  CB  ILE A   6       1.757  -3.954  10.105  0.00  0.00    +0.027 C 
ATOM     40  CG2 ILE A   6       1.169  -3.608   8.758  0.00  0.00    +0.002 C 
BRANCH  39  41
ATOM     41  CG1 ILE A   6       0.668  -3.916  11.175  0.00  0.00    +0.002 C 
ATOM     42  CD1 ILE A   6      -0.135  -2.630  11.189  0.00  0.00    +0.000 C 
ENDBRANCH  39  41
ENDBRANCH   5  39
ENDBRANCH   2   5
BRANCH   1  43
ATOM     43  CA  GLY A   5       5.134  -6.679  12.298  0.00  0.00    +0.176 C 
BRANCH  43  46
ATOM     44  C   GLY A   4       6.572  -8.448  13.008  0.00  0.00    +0.243 C 
ATOM     45  O   GLY A   4       6.506  -8.072  14.182  0.00  0.00    -0.273 OA
ATOM     46  N   GLY A   5       5.962  -7.830  12.019  0.00  0.00    -0.295 N 
ATOM     47  H   GLY A   5       6.075  -8.168  11.042  0.00  0.00    +0.150 HD
BRANCH  44  48
ATOM     48  CA  GLY A   4       7.373  -9.659  12.609  0.00  0.00    +0.176 C 
BRANCH  48  50
ATOM     49  C   ILE A   3       9.662 -10.073  13.045  0.00  0.00    +0.241 C 
ATOM     50  N   GLY A   4       8.438  -9.958  13.535  0.00  0.00    -0.295 N 
ATOM     51  H   GLY A   4       8.251 -10.079  14.551  0.00  0.00    +0.150 HD
ATOM     52  O   ILE A   3       9.893  -9.936  11.853  0.00  0.00    -0.273 OA
BRANCH  49  53
ATOM     53  CA  ILE A   3      10.777 -10.430  14.020  0.00  0.00    +0.149 C 
BRANCH  53  56
ATOM     54  C   MET A   2      12.019 -12.461  13.564  0.00  0.00    +0.241 C 
ATOM     55  O   MET A   2      11.559 -13.021  14.556  0.00  0.00    -0.273 OA
ATOM     56  N   ILE A   3      11.742 -11.198  13.247  0.00  0.00    -0.297 N 
ATOM     57  H   ILE A   3      12.221 -10.755  12.437  0.00  0.00    +0.150 HD
BRANCH  54  58
ATOM     58  CA  MET A   2      12.993 -13.206  12.662  0.00  0.00    +0.149 C 
BRANCH  58  60
ATOM     59  C   LYS A   1      15.304 -13.537  13.328  0.00  0.00    +0.238 C 
ATOM     60  N   MET A   2      14.020 -13.829  13.472  0.00  0.00    -0.297 N 
ATOM     61  H   MET A   2      13.740 -14.528  14.190  0.00  0.00    +0.150 HD
ATOM     62  O   LYS A   1      15.728 -12.730  12.501  0.00  0.00    -0.274 OA
BRANCH  59  63
ATOM     63  CA  LYS A   1      16.252 -14.301  14.238  0.00  0.00    +0.145 C 
BRANCH  63  64
ATOM     64  N   LYS A   1      17.598 -14.196  13.737  0.00  0.00    -0.238 NA
ATOM     65  H   LYS A   1      17.837 -13.472  13.030  0.00  0.00    +0.142 HD
ENDBRANCH  63  64
BRANCH  63  66
ATOM     66  CB  LYS A   1      16.164 -13.821  15.682  0.00  0.00    +0.026 C 
BRANCH  66  67
ATOM     67  CG  LYS A   1      16.250 -12.364  15.885  0.00  0.00    -0.000 C 
BRANCH  67  68
ATOM     68  CD  LYS A   1      15.096 -11.921  16.787  0.00  0.00    -0.024 C 
BRANCH  68  69
ATOM     69  CE  LYS A   1      15.125 -12.597  18.138  0.00  0.00    -0.086 C 
BRANCH  69  70
ATOM     70  NZ  LYS A   1      13.873 -12.286  18.868  0.00  0.00    +0.380 N 
ATOM     71  HZ1 LYS A   1      13.891 -12.750  19.798  0.00  0.00    -0.089 HD
ATOM     72  HZ2 LYS A   1      13.793 -11.257  18.995  0.00  0.00    -0.089 HD
ATOM     73  HZ3 LYS A   1      13.059 -12.633  18.322  0.00  0.00    -0.089 HD
ENDBRANCH  69  70
ENDBRANCH  68  69
ENDBRANCH  67  68
ENDBRANCH  66  67
ENDBRANCH  63  66
ENDBRANCH  59  63
ENDBRANCH  58  60
BRANCH  58  74
ATOM     74  CB  MET A   2      12.164 -14.290  11.961  0.00  0.00    +0.041 C 
BRANCH  74  75
ATOM     75  CG  MET A   2      12.929 -15.226  11.075  0.00  0.00    +0.060 C 
BRANCH  75  76
ATOM     76  SD  MET A   2      13.163 -14.465   9.496  0.00  0.00    -0.139 S 
ATOM     77  CE  MET A   2      11.662 -14.965   8.645  0.00  0.00    +0.069 C 
ENDBRANCH  75  76
ENDBRANCH  74  75
ENDBRANCH  58  74
ENDBRANCH  54  58
ENDBRANCH  53  56
BRANCH  53  78
ATOM     78  CB  ILE A   3      11.382  -9.144  14.649  0.00  0.00    +0.027 C 
ATOM     79  CG2 ILE A   3      12.309  -9.521  15.777  0.00  0.00    +0.002 C 
BRANCH  78  80
ATOM     80  CG1 ILE A   3      12.097  -8.310  13.593  0.00  0.00    +0.002 C 
ATOM     81  CD1 ILE A   3      12.423  -6.915  14.062  0.00  0.00    +0.000 C 
ENDBRANCH  78  80
ENDBRANCH  53  78
ENDBRANCH  49  53
ENDBRANCH  48  50
ENDBRANCH  44  48
ENDBRANCH  43  46
ENDBRANCH   1  43
TORSDOF 36
REMARK  Name = ../refined-set-2016/1z1h/1z1h_pocket.pdb
REMARK  217 active torsions:
REMARK  status: ('A' for Active; 'I' for Inactive)
REMARK    1  A    between atoms: _1  and  _3
REMARK    2  A    between atoms: _3  and  _4
REMARK    3  A    between atoms: _3  and  _6
REMARK    4  A    between atoms: _6  and  _7
REMARK    5  A    between atoms: _7  and  _8
REMARK    6  A    between atoms: _8  and  _9
REMARK    7  A    between atoms: _18  and  _20
REMARK    8  A    between atoms: _20  and  _21
REMARK    9  A    between atoms: _20  and  _23
REMARK   10  A    between atoms: _23  and  _24
REMARK   11  A    between atoms: _27  and  _29
REMARK   12  A    between atoms: _29  and  _30
REMARK   13  A    between atoms: _29  and  _32
REMARK   14  A    between atoms: _32  and  _33
REMARK   15  A    between atoms: _36  and  _38
REMARK   16  A    between atoms: _38  and  _39
REMARK   17  A    between atoms: _38  and  _41
REMARK   18  A    between atoms: _41  and  _42
REMARK   19  A    between atoms: _45  and  _47
REMARK   20  A    between atoms: _47  and  _48
REMARK   21  A    between atoms: _47  and  _50
REMARK   22  A    between atoms: _50  and  _51
REMARK   23  A    between atoms: _54  and  _56
REMARK   24  A    between atoms: _56  and  _57
REMARK   25  A    between atoms: _59  and  _61
REMARK   26  A    between atoms: _61  and  _62
REMARK   27  A    between atoms: _65  and  _67
REMARK   28  A    between atoms: _67  and  _68
REMARK   29  A    between atoms: _67  and  _70
REMARK   30  A    between atoms: _70  and  _71
REMARK   31  A    between atoms: _74  and  _76
REMARK   32  A    between atoms: _76  and  _77
REMARK   33  A    between atoms: _76  and  _79
REMARK   34  A    between atoms: _79  and  _80
REMARK   35  A    between atoms: _83  and  _85
REMARK   36  A    between atoms: _85  and  _86
REMARK   37  A    between atoms: _85  and  _88
REMARK   38  A    between atoms: _88  and  _89
REMARK   39  A    between atoms: _92  and  _94
REMARK   40  A    between atoms: _94  and  _95
REMARK   41  A    between atoms: _94  and  _97
REMARK   42  A    between atoms: _100  and  _102
REMARK   43  A    between atoms: _102  and  _103
REMARK   44  A    between atoms: _102  and  _105
REMARK   45  A    between atoms: _105  and  _106
REMARK   46  A    between atoms: _109  and  _111
REMARK   47  A    between atoms: _111  and  _112
REMARK   48  A    between atoms: _114  and  _116
REMARK   49  A    between atoms: _116  and  _117
REMARK   50  A    between atoms: _119  and  _121
REMARK   51  A    between atoms: _121  and  _122
REMARK   52  A    between atoms: _121  and  _124
REMARK   53  A    between atoms: _124  and  _125
REMARK   54  A    between atoms: _128  and  _130
REMARK   55  A    between atoms: _130  and  _131
REMARK   56  A    between atoms: _133  and  _135
REMARK   57  A    between atoms: _135  and  _136
REMARK   58  A    between atoms: _138  and  _140
REMARK   59  A    between atoms: _140  and  _141
REMARK   60  A    between atoms: _140  and  _143
REMARK   61  A    between atoms: _143  and  _144
REMARK   62  A    between atoms: _150  and  _152
REMARK   63  A    between atoms: _152  and  _153
REMARK   64  A    between atoms: _152  and  _155
REMARK   65  A    between atoms: _155  and  _156
REMARK   66  A    between atoms: _159  and  _161
REMARK   67  A    between atoms: _161  and  _162
REMARK   68  A    between atoms: _161  and  _164
REMARK   69  A    between atoms: _164  and  _165
REMARK   70  A    between atoms: _168  and  _170
REMARK   71  A    between atoms: _170  and  _171
REMARK   72  A    between atoms: _170  and  _173
REMARK   73  A    between atoms: _173  and  _174
REMARK   74  A    between atoms: _178  and  _179
REMARK   75  A    between atoms: _184  and  _186
REMARK   76  A    between atoms: _186  and  _187
REMARK   77  A    between atoms: _186  and  _189
REMARK   78  A    between atoms: _192  and  _194
REMARK   79  A    between atoms: _194  and  _195
REMARK   80  A    between atoms: _194  and  _197
REMARK   81  A    between atoms: _197  and  _198
REMARK   82  A    between atoms: _203  and  _205
REMARK   83  A    between atoms: _205  and  _206
REMARK   84  A    between atoms: _205  and  _208
REMARK   85  A    between atoms: _208  and  _209
REMARK   86  A    between atoms: _212  and  _214
REMARK   87  A    between atoms: _214  and  _215
REMARK   88  A    between atoms: _214  and  _217
REMARK   89  A    between atoms: _217  and  _218
REMARK   90  A    between atoms: _221  and  _223
REMARK   91  A    between atoms: _223  and  _224
REMARK   92  A    between atoms: _226  and  _228
REMARK   93  A    between atoms: _228  and  _229
REMARK   94  A    between atoms: _228  and  _231
REMARK   95  A    between atoms: _231  and  _232
REMARK   96  A    between atoms: _232  and  _233
REMARK   97  A    between atoms: _233  and  _234
REMARK   98  A    between atoms: _243  and  _245
REMARK   99  A    between atoms: _245  and  _246
REMARK  100  A    between atoms: _245  and  _248
REMARK  101  A    between atoms: _248  and  _249
REMARK  102  A    between atoms: _254  and  _256
REMARK  103  A    between atoms: _256  and  _257
REMARK  104  A    between atoms: _256  and  _259
REMARK  105  A    between atoms: _259  and  _260
REMARK  106  A    between atoms: _260  and  _261
REMARK  107  A    between atoms: _261  and  _262
REMARK  108  A    between atoms: _271  and  _273
REMARK  109  A    between atoms: _273  and  _274
REMARK  110  A    between atoms: _273  and  _276
REMARK  111  A    between atoms: _276  and  _277
REMARK  112  A    between atoms: _280  and  _282
REMARK  113  A    between atoms: _282  and  _283
REMARK  114  A    between atoms: _282  and  _285
REMARK  115  A    between atoms: _285  and  _286
REMARK  116  A    between atoms: _289  and  _291
REMARK  117  A    between atoms: _291  and  _292
REMARK  118  A    between atoms: _291  and  _294
REMARK  119  A    between atoms: _294  and  _295
REMARK  120  A    between atoms: _298  and  _300
REMARK  121  A    between atoms: _300  and  _301
REMARK  122  A    between atoms: _300  and  _303
REMARK  123  A    between atoms: _303  and  _304
REMARK  124  A    between atoms: _307  and  _309
REMARK  125  A    between atoms: _309  and  _310
REMARK  126  A    between atoms: _312  and  _314
REMARK  127  A    between atoms: _314  and  _315
REMARK  128  A    between atoms: _318  and  _320
REMARK  129  A    between atoms: _320  and  _321
REMARK  130  A    between atoms: _320  and  _323
REMARK  131  A    between atoms: _323  and  _324
REMARK  132  A    between atoms: _327  and  _329
REMARK  133  A    between atoms: _329  and  _330
REMARK  134  A    between atoms: _329  and  _332
REMARK  135  A    between atoms: _332  and  _333
REMARK  136  A    between atoms: _336  and  _338
REMARK  137  A    between atoms: _338  and  _339
REMARK  138  A    between atoms: _338  and  _341
REMARK  139  A    between atoms: _341  and  _342
REMARK  140  A    between atoms: _345  and  _347
REMARK  141  A    between atoms: _347  and  _348
REMARK  142  A    between atoms: _347  and  _350
REMARK  143  A    between atoms: _353  and  _355
REMARK  144  A    between atoms: _355  and  _356
REMARK  145  A    between atoms: _355  and  _358
REMARK  146  A    between atoms: _358  and  _359
REMARK  147  A    between atoms: _359  and  _360
REMARK  148  A    between atoms: _360  and  _361
REMARK  149  A    between atoms: _361  and  _362
REMARK  150  A    between atoms: _366  and  _368
REMARK  151  A    between atoms: _368  and  _369
REMARK  152  A    between atoms: _368  and  _371
REMARK  153  A    between atoms: _371  and  _372
REMARK  154  A    between atoms: _372  and  _373
REMARK  155  A    between atoms: _375  and  _377
REMARK  156  A    between atoms: _377  and  _378
REMARK  157  A    between atoms: _377  and  _380
REMARK  158  A    between atoms: _380  and  _381
REMARK  159  A    between atoms: _384  and  _386
REMARK  160  A    between atoms: _386  and  _387
REMARK  161  A    between atoms: _389  and  _391
REMARK  162  A    between atoms: _391  and  _392
REMARK  163  A    between atoms: _394  and  _396
REMARK  164  A    between atoms: _396  and  _397
REMARK  165  A    between atoms: _396  and  _399
REMARK  166  A    between atoms: _399  and  _400
REMARK  167  A    between atoms: _403  and  _405
REMARK  168  A    between atoms: _405  and  _406
REMARK  169  A    between atoms: _408  and  _410
REMARK  170  A    between atoms: _410  and  _411
REMARK  171  A    between atoms: _413  and  _415
REMARK  172  A    between atoms: _415  and  _416
REMARK  173  A    between atoms: _415  and  _418
REMARK  174  A    between atoms: _418  and  _419
REMARK  175  A    between atoms: _425  and  _427
REMARK  176  A    between atoms: _427  and  _428
REMARK  177  A    between atoms: _427  and  _430
REMARK  178  A    between atoms: _430  and  _431
REMARK  179  A    between atoms: _434  and  _436
REMARK  180  A    between atoms: _436  and  _437
REMARK  181  A    between atoms: _436  and  _439
REMARK  182  A    between atoms: _442  and  _444
REMARK  183  A    between atoms: _444  and  _445
REMARK  184  A    between atoms: _444  and  _447
REMARK  185  A    between atoms: _447  and  _448
REMARK  186  A    between atoms: _451  and  _453
REMARK  187  A    between atoms: _453  and  _454
REMARK  188  A    between atoms: _453  and  _456
REMARK  189  A    between atoms: _456  and  _457
REMARK  190  A    between atoms: _461  and  _462
REMARK  191  A    between atoms: _467  and  _469
REMARK  192  A    between atoms: _469  and  _470
REMARK  193  A    between atoms: _469  and  _472
REMARK  194  A    between atoms: _475  and  _477
REMARK  195  A    between atoms: _477  and  _478
REMARK  196  A    between atoms: _477  and  _480
REMARK  197  A    between atoms: _480  and  _481
REMARK  198  A    between atoms: _486  and  _488
REMARK  199  A    between atoms: _488  and  _489
REMARK  200  A    between atoms: _488  and  _491
REMARK  201  A    between atoms: _491  and  _492
REMARK  202  A    between atoms: _495  and  _497
REMARK  203  A    between atoms: _497  and  _498
REMARK  204  A    between atoms: _497  and  _500
REMARK  205  A    between atoms: _500  and  _501
REMARK  206  A    between atoms: _504  and  _506
REMARK  207  A    between atoms: _506  and  _507
REMARK  208  A    between atoms: _509  and  _511
REMARK  209  A    between atoms: _511  and  _512
REMARK  210  A    between atoms: _511  and  _514
REMARK  211  A    between atoms: _514  and  _515
REMARK  212  A    between atoms: _515  and  _516
REMARK  213  A    between atoms: _516  and  _517
REMARK  214  A    between atoms: _526  and  _528
REMARK  215  A    between atoms: _528  and  _529
REMARK  216  A    between atoms: _528  and  _531
REMARK  217  A    between atoms: _531  and  _532
REMARK                            x       y       z     vdW  Elec       q    Type
REMARK                         _______ _______ _______ _____ _____    ______ ____
ROOT
ATOM      1  CA  VAL A   1      17.689  -9.677  11.620  0.00  0.00    +0.133 C 
ENDROOT
BRANCH   1   2
ATOM      2  CB  VAL A   1      16.912  -8.737  12.619  0.00  0.00    +0.023 C 
ATOM      3  CG2 VAL A   1      16.357  -9.543  13.779  0.00  0.00    +0.002 C 
ATOM      4  CG1 VAL A   1      15.775  -8.000  11.888  0.00  0.00    +0.002 C 
ENDBRANCH   1   2
BRANCH   1   5
ATOM      5  N   VAL A   1      16.790 -10.627  10.974  0.00  0.00    -0.239 NA
ATOM      6  H   VAL A   1      16.503 -11.489  11.480  0.00  0.00    +0.142 HD
ENDBRANCH   1   5
BRANCH   1   7
ATOM      7  C   VAL A   1      18.805 -10.395  12.378  0.00  0.00    +0.224 C 
ATOM      8  O   VAL A   1      18.754 -11.609  12.583  0.00  0.00    -0.287 OA
ENDBRANCH   1   7
TORSDOF 3
REMARK  Name = ../refined-set-2016/1z1h/1z1h_pocket.pdb
REMARK  217 active torsions:
REMARK  status: ('A' for Active; 'I' for Inactive)
REMARK    1  A    between atoms: _1  and  _3
REMARK    2  A    between atoms: _3  and  _4
REMARK    3  A    between atoms: _3  and  _6
REMARK    4  A    between atoms: _6  and  _7
REMARK    5  A    between atoms: _7  and  _8
REMARK    6  A    between atoms: _8  and  _9
REMARK    7  A    between atoms: _18  and  _20
REMARK    8  A    between atoms: _20  and  _21
REMARK    9  A    between atoms: _20  and  _23
REMARK   10  A    between atoms: _23  and  _24
REMARK   11  A    between atoms: _27  and  _29
REMARK   12  A    between atoms: _29  and  _30
REMARK   13  A    between atoms: _29  and  _32
REMARK   14  A    between atoms: _32  and  _33
REMARK   15  A    between atoms: _36  and  _38
REMARK   16  A    between atoms: _38  and  _39
REMARK   17  A    between atoms: _38  and  _41
REMARK   18  A    between atoms: _41  and  _42
REMARK   19  A    between atoms: _45  and  _47
REMARK   20  A    between atoms: _47  and  _48
REMARK   21  A    between atoms: _47  and  _50
REMARK   22  A    between atoms: _50  and  _51
REMARK   23  A    between atoms: _54  and  _56
REMARK   24  A    between atoms: _56  and  _57
REMARK   25  A    between atoms: _59  and  _61
REMARK   26  A    between atoms: _61  and  _62
REMARK   27  A    between atoms: _65  and  _67
REMARK   28  A    between atoms: _67  and  _68
REMARK   29  A    between atoms: _67  and  _70
REMARK   30  A    between atoms: _70  and  _71
REMARK   31  A    between atoms: _74  and  _76
REMARK   32  A    between atoms: _76  and  _77
REMARK   33  A    between atoms: _76  and  _79
REMARK   34  A    between atoms: _79  and  _80
REMARK   35  A    between atoms: _83  and  _85
REMARK   36  A    between atoms: _85  and  _86
REMARK   37  A    between atoms: _85  and  _88
REMARK   38  A    between atoms: _88  and  _89
REMARK   39  A    between atoms: _92  and  _94
REMARK   40  A    between atoms: _94  and  _95
REMARK   41  A    between atoms: _94  and  _97
REMARK   42  A    between atoms: _100  and  _102
REMARK   43  A    between atoms: _102  and  _103
REMARK   44  A    between atoms: _102  and  _105
REMARK   45  A    between atoms: _105  and  _106
REMARK   46  A    between atoms: _109  and  _111
REMARK   47  A    between atoms: _111  and  _112
REMARK   48  A    between atoms: _114  and  _116
REMARK   49  A    between atoms: _116  and  _117
REMARK   50  A    between atoms: _119  and  _121
REMARK   51  A    between atoms: _121  and  _122
REMARK   52  A    between atoms: _121  and  _124
REMARK   53  A    between atoms: _124  and  _125
REMARK   54  A    between atoms: _128  and  _130
REMARK   55  A    between atoms: _130  and  _131
REMARK   56  A    between atoms: _133  and  _135
REMARK   57  A    between atoms: _135  and  _136
REMARK   58  A    between atoms: _138  and  _140
REMARK   59  A    between atoms: _140  and  _141
REMARK   60  A    between atoms: _140  and  _143
REMARK   61  A    between atoms: _143  and  _144
REMARK   62  A    between atoms: _150  and  _152
REMARK   63  A    between atoms: _152  and  _153
REMARK   64  A    between atoms: _152  and  _155
REMARK   65  A    between atoms: _155  and  _156
REMARK   66  A    between atoms: _159  and  _161
REMARK   67  A    between atoms: _161  and  _162
REMARK   68  A    between atoms: _161  and  _164
REMARK   69  A    between atoms: _164  and  _165
REMARK   70  A    between atoms: _168  and  _170
REMARK   71  A    between atoms: _170  and  _171
REMARK   72  A    between atoms: _170  and  _173
REMARK   73  A    between atoms: _173  and  _174
REMARK   74  A    between atoms: _178  and  _179
REMARK   75  A    between atoms: _184  and  _186
REMARK   76  A    between atoms: _186  and  _187
REMARK   77  A    between atoms: _186  and  _189
REMARK   78  A    between atoms: _192  and  _194
REMARK   79  A    between atoms: _194  and  _195
REMARK   80  A    between atoms: _194  and  _197
REMARK   81  A    between atoms: _197  and  _198
REMARK   82  A    between atoms: _203  and  _205
REMARK   83  A    between atoms: _205  and  _206
REMARK   84  A    between atoms: _205  and  _208
REMARK   85  A    between atoms: _208  and  _209
REMARK   86  A    between atoms: _212  and  _214
REMARK   87  A    between atoms: _214  and  _215
REMARK   88  A    between atoms: _214  and  _217
REMARK   89  A    between atoms: _217  and  _218
REMARK   90  A    between atoms: _221  and  _223
REMARK   91  A    between atoms: _223  and  _224
REMARK   92  A    between atoms: _226  and  _228
REMARK   93  A    between atoms: _228  and  _229
REMARK   94  A    between atoms: _228  and  _231
REMARK   95  A    between atoms: _231  and  _232
REMARK   96  A    between atoms: _232  and  _233
REMARK   97  A    between atoms: _233  and  _234
REMARK   98  A    between atoms: _243  and  _245
REMARK   99  A    between atoms: _245  and  _246
REMARK  100  A    between atoms: _245  and  _248
REMARK  101  A    between atoms: _248  and  _249
REMARK  102  A    between atoms: _254  and  _256
REMARK  103  A    between atoms: _256  and  _257
REMARK  104  A    between atoms: _256  and  _259
REMARK  105  A    between atoms: _259  and  _260
REMARK  106  A    between atoms: _260  and  _261
REMARK  107  A    between atoms: _261  and  _262
REMARK  108  A    between atoms: _271  and  _273
REMARK  109  A    between atoms: _273  and  _274
REMARK  110  A    between atoms: _273  and  _276
REMARK  111  A    between atoms: _276  and  _277
REMARK  112  A    between atoms: _280  and  _282
REMARK  113  A    between atoms: _282  and  _283
REMARK  114  A    between atoms: _282  and  _285
REMARK  115  A    between atoms: _285  and  _286
REMARK  116  A    between atoms: _289  and  _291
REMARK  117  A    between atoms: _291  and  _292
REMARK  118  A    between atoms: _291  and  _294
REMARK  119  A    between atoms: _294  and  _295
REMARK  120  A    between atoms: _298  and  _300
REMARK  121  A    between atoms: _300  and  _301
REMARK  122  A    between atoms: _300  and  _303
REMARK  123  A    between atoms: _303  and  _304
REMARK  124  A    between atoms: _307  and  _309
REMARK  125  A    between atoms: _309  and  _310
REMARK  126  A    between atoms: _312  and  _314
REMARK  127  A    between atoms: _314  and  _315
REMARK  128  A    between atoms: _318  and  _320
REMARK  129  A    between atoms: _320  and  _321
REMARK  130  A    between atoms: _320  and  _323
REMARK  131  A    between atoms: _323  and  _324
REMARK  132  A    between atoms: _327  and  _329
REMARK  133  A    between atoms: _329  and  _330
REMARK  134  A    between atoms: _329  and  _332
REMARK  135  A    between atoms: _332  and  _333
REMARK  136  A    between atoms: _336  and  _338
REMARK  137  A    between atoms: _338  and  _339
REMARK  138  A    between atoms: _338  and  _341
REMARK  139  A    between atoms: _341  and  _342
REMARK  140  A    between atoms: _345  and  _347
REMARK  141  A    between atoms: _347  and  _348
REMARK  142  A    between atoms: _347  and  _350
REMARK  143  A    between atoms: _353  and  _355
REMARK  144  A    between atoms: _355  and  _356
REMARK  145  A    between atoms: _355  and  _358
REMARK  146  A    between atoms: _358  and  _359
REMARK  147  A    between atoms: _359  and  _360
REMARK  148  A    between atoms: _360  and  _361
REMARK  149  A    between atoms: _361  and  _362
REMARK  150  A    between atoms: _366  and  _368
REMARK  151  A    between atoms: _368  and  _369
REMARK  152  A    between atoms: _368  and  _371
REMARK  153  A    between atoms: _371  and  _372
REMARK  154  A    between atoms: _372  and  _373
REMARK  155  A    between atoms: _375  and  _377
REMARK  156  A    between atoms: _377  and  _378
REMARK  157  A    between atoms: _377  and  _380
REMARK  158  A    between atoms: _380  and  _381
REMARK  159  A    between atoms: _384  and  _386
REMARK  160  A    between atoms: _386  and  _387
REMARK  161  A    between atoms: _389  and  _391
REMARK  162  A    between atoms: _391  and  _392
REMARK  163  A    between atoms: _394  and  _396
REMARK  164  A    between atoms: _396  and  _397
REMARK  165  A    between atoms: _396  and  _399
REMARK  166  A    between atoms: _399  and  _400
REMARK  167  A    between atoms: _403  and  _405
REMARK  168  A    between atoms: _405  and  _406
REMARK  169  A    between atoms: _408  and  _410
REMARK  170  A    between atoms: _410  and  _411
REMARK  171  A    between atoms: _413  and  _415
REMARK  172  A    between atoms: _415  and  _416
REMARK  173  A    between atoms: _415  and  _418
REMARK  174  A    between atoms: _418  and  _419
REMARK  175  A    between atoms: _425  and  _427
REMARK  176  A    between atoms: _427  and  _428
REMARK  177  A    between atoms: _427  and  _430
REMARK  178  A    between atoms: _430  and  _431
REMARK  179  A    between atoms: _434  and  _436
REMARK  180  A    between atoms: _436  and  _437
REMARK  181  A    between atoms: _436  and  _439
REMARK  182  A    between atoms: _442  and  _444
REMARK  183  A    between atoms: _444  and  _445
REMARK  184  A    between atoms: _444  and  _447
REMARK  185  A    between atoms: _447  and  _448
REMARK  186  A    between atoms: _451  and  _453
REMARK  187  A    between atoms: _453  and  _454
REMARK  188  A    between atoms: _453  and  _456
REMARK  189  A    between atoms: _456  and  _457
REMARK  190  A    between atoms: _461  and  _462
REMARK  191  A    between atoms: _467  and  _469
REMARK  192  A    between atoms: _469  and  _470
REMARK  193  A    between atoms: _469  and  _472
REMARK  194  A    between atoms: _475  and  _477
REMARK  195  A    between atoms: _477  and  _478
REMARK  196  A    between atoms: _477  and  _480
REMARK  197  A    between atoms: _480  and  _481
REMARK  198  A    between atoms: _486  and  _488
REMARK  199  A    between atoms: _488  and  _489
REMARK  200  A    between atoms: _488  and  _491
REMARK  201  A    between atoms: _491  and  _492
REMARK  202  A    between atoms: _495  and  _497
REMARK  203  A    between atoms: _497  and  _498
REMARK  204  A    between atoms: _497  and  _500
REMARK  205  A    between atoms: _500  and  _501
REMARK  206  A    between atoms: _504  and  _506
REMARK  207  A    between atoms: _506  and  _507
REMARK  208  A    between atoms: _509  and  _511
REMARK  209  A    between atoms: _511  and  _512
REMARK  210  A    between atoms: _511  and  _514
REMARK  211  A    between atoms: _514  and  _515
REMARK  212  A    between atoms: _515  and  _516
REMARK  213  A    between atoms: _516  and  _517
REMARK  214  A    between atoms: _526  and  _528
REMARK  215  A    between atoms: _528  and  _529
REMARK  216  A    between atoms: _528  and  _531
REMARK  217  A    between atoms: _531  and  _532
REMARK                            x       y       z     vdW  Elec       q    Type
REMARK                         _______ _______ _______ _____ _____    ______ ____
ROOT
ATOM      1  CA  LEU A   1      18.473  -6.387  16.468  0.00  0.00    +0.133 C 
ENDROOT
BRANCH   1   2
ATOM      2  N   LEU A   1      18.640  -5.599  17.684  0.00  0.00    -0.239 NA
ATOM      3  H   LEU A   1      17.903  -4.920  17.963  0.00  0.00    +0.142 HD
ENDBRANCH   1   2
BRANCH   1   4
ATOM      4  C   LEU A   1      18.825  -5.486  15.295  0.00  0.00    +0.224 C 
ATOM      5  O   LEU A   1      18.373  -4.353  15.223  0.00  0.00    -0.287 OA
ENDBRANCH   1   4
BRANCH   1   6
ATOM      6  CB  LEU A   1      17.032  -6.894  16.343  0.00  0.00    +0.025 C 
BRANCH   6   7
ATOM      7  CG  LEU A   1      16.446  -7.617  17.564  0.00  0.00    +0.002 C 
ATOM      8  CD2 LEU A   1      17.228  -8.900  17.892  0.00  0.00    +0.000 C 
ATOM      9  CD1 LEU A   1      14.973  -7.940  17.261  0.00  0.00    +0.000 C 
ENDBRANCH   6   7
ENDBRANCH   1   6
TORSDOF 4
REMARK  Name = ../refined-set-2016/1z1h/1z1h_pocket.pdb
REMARK  217 active torsions:
REMARK  status: ('A' for Active; 'I' for Inactive)
REMARK    1  A    between atoms: _1  and  _3
REMARK    2  A    between atoms: _3  and  _4
REMARK    3  A    between atoms: _3  and  _6
REMARK    4  A    between atoms: _6  and  _7
REMARK    5  A    between atoms: _7  and  _8
REMARK    6  A    between atoms: _8  and  _9
REMARK    7  A    between atoms: _18  and  _20
REMARK    8  A    between atoms: _20  and  _21
REMARK    9  A    between atoms: _20  and  _23
REMARK   10  A    between atoms: _23  and  _24
REMARK   11  A    between atoms: _27  and  _29
REMARK   12  A    between atoms: _29  and  _30
REMARK   13  A    between atoms: _29  and  _32
REMARK   14  A    between atoms: _32  and  _33
REMARK   15  A    between atoms: _36  and  _38
REMARK   16  A    between atoms: _38  and  _39
REMARK   17  A    between atoms: _38  and  _41
REMARK   18  A    between atoms: _41  and  _42
REMARK   19  A    between atoms: _45  and  _47
REMARK   20  A    between atoms: _47  and  _48
REMARK   21  A    between atoms: _47  and  _50
REMARK   22  A    between atoms: _50  and  _51
REMARK   23  A    between atoms: _54  and  _56
REMARK   24  A    between atoms: _56  and  _57
REMARK   25  A    between atoms: _59  and  _61
REMARK   26  A    between atoms: _61  and  _62
REMARK   27  A    between atoms: _65  and  _67
REMARK   28  A    between atoms: _67  and  _68
REMARK   29  A    between atoms: _67  and  _70
REMARK   30  A    between atoms: _70  and  _71
REMARK   31  A    between atoms: _74  and  _76
REMARK   32  A    between atoms: _76  and  _77
REMARK   33  A    between atoms: _76  and  _79
REMARK   34  A    between atoms: _79  and  _80
REMARK   35  A    between atoms: _83  and  _85
REMARK   36  A    between atoms: _85  and  _86
REMARK   37  A    between atoms: _85  and  _88
REMARK   38  A    between atoms: _88  and  _89
REMARK   39  A    between atoms: _92  and  _94
REMARK   40  A    between atoms: _94  and  _95
REMARK   41  A    between atoms: _94  and  _97
REMARK   42  A    between atoms: _100  and  _102
REMARK   43  A    between atoms: _102  and  _103
REMARK   44  A    between atoms: _102  and  _105
REMARK   45  A    between atoms: _105  and  _106
REMARK   46  A    between atoms: _109  and  _111
REMARK   47  A    between atoms: _111  and  _112
REMARK   48  A    between atoms: _114  and  _116
REMARK   49  A    between atoms: _116  and  _117
REMARK   50  A    between atoms: _119  and  _121
REMARK   51  A    between atoms: _121  and  _122
REMARK   52  A    between atoms: _121  and  _124
REMARK   53  A    between atoms: _124  and  _125
REMARK   54  A    between atoms: _128  and  _130
REMARK   55  A    between atoms: _130  and  _131
REMARK   56  A    between atoms: _133  and  _135
REMARK   57  A    between atoms: _135  and  _136
REMARK   58  A    between atoms: _138  and  _140
REMARK   59  A    between atoms: _140  and  _141
REMARK   60  A    between atoms: _140  and  _143
REMARK   61  A    between atoms: _143  and  _144
REMARK   62  A    between atoms: _150  and  _152
REMARK   63  A    between atoms: _152  and  _153
REMARK   64  A    between atoms: _152  and  _155
REMARK   65  A    between atoms: _155  and  _156
REMARK   66  A    between atoms: _159  and  _161
REMARK   67  A    between atoms: _161  and  _162
REMARK   68  A    between atoms: _161  and  _164
REMARK   69  A    between atoms: _164  and  _165
REMARK   70  A    between atoms: _168  and  _170
REMARK   71  A    between atoms: _170  and  _171
REMARK   72  A    between atoms: _170  and  _173
REMARK   73  A    between atoms: _173  and  _174
REMARK   74  A    between atoms: _178  and  _179
REMARK   75  A    between atoms: _184  and  _186
REMARK   76  A    between atoms: _186  and  _187
REMARK   77  A    between atoms: _186  and  _189
REMARK   78  A    between atoms: _192  and  _194
REMARK   79  A    between atoms: _194  and  _195
REMARK   80  A    between atoms: _194  and  _197
REMARK   81  A    between atoms: _197  and  _198
REMARK   82  A    between atoms: _203  and  _205
REMARK   83  A    between atoms: _205  and  _206
REMARK   84  A    between atoms: _205  and  _208
REMARK   85  A    between atoms: _208  and  _209
REMARK   86  A    between atoms: _212  and  _214
REMARK   87  A    between atoms: _214  and  _215
REMARK   88  A    between atoms: _214  and  _217
REMARK   89  A    between atoms: _217  and  _218
REMARK   90  A    between atoms: _221  and  _223
REMARK   91  A    between atoms: _223  and  _224
REMARK   92  A    between atoms: _226  and  _228
REMARK   93  A    between atoms: _228  and  _229
REMARK   94  A    between atoms: _228  and  _231
REMARK   95  A    between atoms: _231  and  _232
REMARK   96  A    between atoms: _232  and  _233
REMARK   97  A    between atoms: _233  and  _234
REMARK   98  A    between atoms: _243  and  _245
REMARK   99  A    between atoms: _245  and  _246
REMARK  100  A    between atoms: _245  and  _248
REMARK  101  A    between atoms: _248  and  _249
REMARK  102  A    between atoms: _254  and  _256
REMARK  103  A    between atoms: _256  and  _257
REMARK  104  A    between atoms: _256  and  _259
REMARK  105  A    between atoms: _259  and  _260
REMARK  106  A    between atoms: _260  and  _261
REMARK  107  A    between atoms: _261  and  _262
REMARK  108  A    between atoms: _271  and  _273
REMARK  109  A    between atoms: _273  and  _274
REMARK  110  A    between atoms: _273  and  _276
REMARK  111  A    between atoms: _276  and  _277
REMARK  112  A    between atoms: _280  and  _282
REMARK  113  A    between atoms: _282  and  _283
REMARK  114  A    between atoms: _282  and  _285
REMARK  115  A    between atoms: _285  and  _286
REMARK  116  A    between atoms: _289  and  _291
REMARK  117  A    between atoms: _291  and  _292
REMARK  118  A    between atoms: _291  and  _294
REMARK  119  A    between atoms: _294  and  _295
REMARK  120  A    between atoms: _298  and  _300
REMARK  121  A    between atoms: _300  and  _301
REMARK  122  A    between atoms: _300  and  _303
REMARK  123  A    between atoms: _303  and  _304
REMARK  124  A    between atoms: _307  and  _309
REMARK  125  A    between atoms: _309  and  _310
REMARK  126  A    between atoms: _312  and  _314
REMARK  127  A    between atoms: _314  and  _315
REMARK  128  A    between atoms: _318  and  _320
REMARK  129  A    between atoms: _320  and  _321
REMARK  130  A    between atoms: _320  and  _323
REMARK  131  A    between atoms: _323  and  _324
REMARK  132  A    between atoms: _327  and  _329
REMARK  133  A    between atoms: _329  and  _330
REMARK  134  A    between atoms: _329  and  _332
REMARK  135  A    between atoms: _332  and  _333
REMARK  136  A    between atoms: _336  and  _338
REMARK  137  A    between atoms: _338  and  _339
REMARK  138  A    between atoms: _338  and  _341
REMARK  139  A    between atoms: _341  and  _342
REMARK  140  A    between atoms: _345  and  _347
REMARK  141  A    between atoms: _347  and  _348
REMARK  142  A    between atoms: _347  and  _350
REMARK  143  A    between atoms: _353  and  _355
REMARK  144  A    between atoms: _355  and  _356
REMARK  145  A    between atoms: _355  and  _358
REMARK  146  A    between atoms: _358  and  _359
REMARK  147  A    between atoms: _359  and  _360
REMARK  148  A    between atoms: _360  and  _361
REMARK  149  A    between atoms: _361  and  _362
REMARK  150  A    between atoms: _366  and  _368
REMARK  151  A    between atoms: _368  and  _369
REMARK  152  A    between atoms: _368  and  _371
REMARK  153  A    between atoms: _371  and  _372
REMARK  154  A    between atoms: _372  and  _373
REMARK  155  A    between atoms: _375  and  _377
REMARK  156  A    between atoms: _377  and  _378
REMARK  157  A    between atoms: _377  and  _380
REMARK  158  A    between atoms: _380  and  _381
REMARK  159  A    between atoms: _384  and  _386
REMARK  160  A    between atoms: _386  and  _387
REMARK  161  A    between atoms: _389  and  _391
REMARK  162  A    between atoms: _391  and  _392
REMARK  163  A    between atoms: _394  and  _396
REMARK  164  A    between atoms: _396  and  _397
REMARK  165  A    between atoms: _396  and  _399
REMARK  166  A    between atoms: _399  and  _400
REMARK  167  A    between atoms: _403  and  _405
REMARK  168  A    between atoms: _405  and  _406
REMARK  169  A    between atoms: _408  and  _410
REMARK  170  A    between atoms: _410  and  _411
REMARK  171  A    between atoms: _413  and  _415
REMARK  172  A    between atoms: _415  and  _416
REMARK  173  A    between atoms: _415  and  _418
REMARK  174  A    between atoms: _418  and  _419
REMARK  175  A    between atoms: _425  and  _427
REMARK  176  A    between atoms: _427  and  _428
REMARK  177  A    between atoms: _427  and  _430
REMARK  178  A    between atoms: _430  and  _431
REMARK  179  A    between atoms: _434  and  _436
REMARK  180  A    between atoms: _436  and  _437
REMARK  181  A    between atoms: _436  and  _439
REMARK  182  A    between atoms: _442  and  _444
REMARK  183  A    between atoms: _444  and  _445
REMARK  184  A    between atoms: _444  and  _447
REMARK  185  A    between atoms: _447  and  _448
REMARK  186  A    between atoms: _451  and  _453
REMARK  187  A    between atoms: _453  and  _454
REMARK  188  A    between atoms: _453  and  _456
REMARK  189  A    between atoms: _456  and  _457
REMARK  190  A    between atoms: _461  and  _462
REMARK  191  A    between atoms: _467  and  _469
REMARK  192  A    between atoms: _469  and  _470
REMARK  193  A    between atoms: _469  and  _472
REMARK  194  A    between atoms: _475  and  _477
REMARK  195  A    between atoms: _477  and  _478
REMARK  196  A    between atoms: _477  and  _480
REMARK  197  A    between atoms: _480  and  _481
REMARK  198  A    between atoms: _486  and  _488
REMARK  199  A    between atoms: _488  and  _489
REMARK  200  A    between atoms: _488  and  _491
REMARK  201  A    between atoms: _491  and  _492
REMARK  202  A    between atoms: _495  and  _497
REMARK  203  A    between atoms: _497  and  _498
REMARK  204  A    between atoms: _497  and  _500
REMARK  205  A    between atoms: _500  and  _501
REMARK  206  A    between atoms: _504  and  _506
REMARK  207  A    between atoms: _506  and  _507
REMARK  208  A    between atoms: _509  and  _511
REMARK  209  A    between atoms: _511  and  _512
REMARK  210  A    between atoms: _511  and  _514
REMARK  211  A    between atoms: _514  and  _515
REMARK  212  A    between atoms: _515  and  _516
REMARK  213  A    between atoms: _516  and  _517
REMARK  214  A    between atoms: _526  and  _528
REMARK  215  A    between atoms: _528  and  _529
REMARK  216  A    between atoms: _528  and  _531
REMARK  217  A    between atoms: _531  and  _532
REMARK                            x       y       z     vdW  Elec       q    Type
REMARK                         _______ _______ _______ _____ _____    ______ ____
ROOT
ATOM      1  C   ILE A   5      13.871   1.349  18.107  0.00  0.00    +0.241 C 
ATOM      2  N   ILE A   6      13.588   2.198  19.102  0.00  0.00    -0.297 N 
ATOM      3  H   ILE A   6      13.060   3.072  18.902  0.00  0.00    +0.150 HD
ATOM      4  O   ILE A   5      14.537   0.322  18.273  0.00  0.00    -0.273 OA
ENDROOT
BRANCH   2   5
ATOM      5  CA  ILE A   6      14.019   1.902  20.475  0.00  0.00    +0.149 C 
BRANCH   5   6
ATOM      6  C   ILE A   6      12.824   1.271  21.194  0.00  0.00    +0.241 C 
ATOM      7  N   GLY A   7      12.960  -0.013  21.526  0.00  0.00    -0.295 N 
ATOM      8  H   GLY A   7      13.855  -0.501  21.318  0.00  0.00    +0.150 HD
ATOM      9  O   ILE A   6      11.810   1.933  21.437  0.00  0.00    -0.273 OA
BRANCH   7  10
ATOM     10  CA  GLY A   7      11.884  -0.745  22.172  0.00  0.00    +0.176 C 
BRANCH  10  11
ATOM     11  C   GLY A   7      11.881  -0.755  23.684  0.00  0.00    +0.243 C 
ATOM     12  O   GLY A   7      12.737  -0.163  24.341  0.00  0.00    -0.273 OA
ATOM     13  N   ARG A   8      10.891  -1.444  24.236  0.00  0.00    -0.297 N 
ATOM     14  H   ARG A   8      10.220  -1.939  23.614  0.00  0.00    +0.150 HD
BRANCH  13  15
ATOM     15  CA  ARG A   8      10.706  -1.535  25.676  0.00  0.00    +0.149 C 
BRANCH  15  16
ATOM     16  C   ARG A   8      11.901  -2.063  26.439  0.00  0.00    +0.241 C 
ATOM     17  O   ARG A   8      12.121  -1.661  27.595  0.00  0.00    -0.273 OA
ATOM     18  N   ASN A   9      12.660  -2.968  25.825  0.00  0.00    -0.298 N 
ATOM     19  H   ASN A   9      12.422  -3.272  24.859  0.00  0.00    +0.150 HD
BRANCH  18  20
ATOM     20  CA  ASN A   9      13.822  -3.536  26.497  0.00  0.00    +0.146 C 
BRANCH  20  21
ATOM     21  C   ASN A   9      14.801  -2.444  26.930  0.00  0.00    +0.227 C 
ATOM     22  O   ASN A   9      15.427  -2.547  27.989  0.00  0.00    -0.286 OA
ENDBRANCH  20  21
BRANCH  20  23
ATOM     23  CB  ASN A   9      14.521  -4.580  25.603  0.00  0.00    +0.112 C 
BRANCH  23  24
ATOM     24  CG  ASN A   9      15.209  -3.965  24.398  0.00  0.00    +0.222 C 
ATOM     25  ND2 ASN A   9      16.492  -4.278  24.230  0.00  0.00    -0.329 N 
ATOM     26 HD21 ASN A   9      16.968  -4.903  24.911  0.00  0.00    +0.145 HD
ATOM     27 HD22 ASN A   9      17.018  -3.897  23.418  0.00  0.00    +0.145 HD
ATOM     28  OD1 ASN A   9      14.595  -3.227  23.620  0.00  0.00    -0.275 OA
ENDBRANCH  23  24
ENDBRANCH  20  23
ENDBRANCH  18  20
ENDBRANCH  15  16
BRANCH  15  29
ATOM     29  CB  ARG A   8       9.474  -2.398  26.011  0.00  0.00    +0.033 C 
BRANCH  29  30
ATOM     30  CG  ARG A   8       8.126  -1.733  25.684  0.00  0.00    +0.045 C 
BRANCH  30  31
ATOM     31  CD  ARG A   8       6.937  -2.537  26.215  0.00  0.00    +0.174 C 
BRANCH  31  32
ATOM     32  NE  ARG A   8       6.900  -3.891  25.660  0.00  0.00    -0.265 N 
ATOM     33  CZ  ARG A   8       7.308  -4.987  26.301  0.00  0.00    +0.342 C 
ATOM     34  NH2 ARG A   8       7.788  -4.916  27.535  0.00  0.00    -0.292 N 
ATOM     35 HH21 ARG A   8       8.102  -5.780  28.021  0.00  0.00    +0.255 HD
ATOM     36 HH22 ARG A   8       7.850  -3.996  28.017  0.00  0.00    +0.255 HD
ATOM     37  NH1 ARG A   8       7.237  -6.162  25.699  0.00  0.00    -0.292 N 
ATOM     38 HH11 ARG A   8       7.554  -7.020  26.194  0.00  0.00    +0.255 HD
ATOM     39 HH12 ARG A   8       6.864  -6.228  24.730  0.00  0.00    +0.255 HD
ATOM     40  HE  ARG A   8       6.528  -4.007  24.696  0.00  0.00    +0.259 HD
ENDBRANCH  31  32
ENDBRANCH  30  31
ENDBRANCH  29  30
ENDBRANCH  15  29
ENDBRANCH  13  15
ENDBRANCH  10  11
ENDBRANCH   7  10
ENDBRANCH   5   6
BRANCH   5  41
ATOM     41  CB  ILE A   6      14.467   3.171  21.237  0.00  0.00    +0.027 C 
ATOM     42  CG2 ILE A   6      14.759   2.822  22.696  0.00  0.00    +0.002 C 
BRANCH  41  43
ATOM     43  CG1 ILE A   6      15.713   3.772  20.574  0.00  0.00    +0.002 C 
ATOM     44  CD1 ILE A   6      16.896   2.819  20.479  0.00  0.00    +0.000 C 
ENDBRANCH  41  43
ENDBRANCH   5  41
ENDBRANCH   2   5
BRANCH   1  45
ATOM     45  CA  ILE A   5      13.326   1.682  16.723  0.00  0.00    +0.149 C 
BRANCH  45  47
ATOM     46  C   ASN A   4      14.484   2.959  14.996  0.00  0.00    +0.241 C 
ATOM     47  N   ILE A   5      14.337   1.842  15.698  0.00  0.00    -0.297 N 
ATOM     48  H   ILE A   5      14.977   1.046  15.503  0.00  0.00    +0.150 HD
ATOM     49  O   ASN A   4      13.820   3.986  15.193  0.00  0.00    -0.273 OA
BRANCH  46  50
ATOM     50  CA  ASN A   4      15.555   2.911  13.909  0.00  0.00    +0.158 C 
BRANCH  50  52
ATOM     51  C   VAL A   3      14.079   2.664  12.003  0.00  0.00    +0.241 C 
ATOM     52  N   ASN A   4      14.927   3.426  12.696  0.00  0.00    -0.297 N 
ATOM     53  H   ASN A   4      15.141   4.390  12.371  0.00  0.00    +0.150 HD
ATOM     54  O   VAL A   3      13.808   1.490  12.324  0.00  0.00    -0.273 OA
BRANCH  51  55
ATOM     55  CA  VAL A   3      13.454   3.290  10.753  0.00  0.00    +0.149 C 
BRANCH  55  57
ATOM     56  C   PRO A   2      13.137   2.605   8.467  0.00  0.00    +0.241 C 
ATOM     57  N   VAL A   3      13.176   2.271   9.751  0.00  0.00    -0.297 N 
ATOM     58  H   VAL A   3      13.009   1.286  10.040  0.00  0.00    +0.150 HD
ATOM     59  O   PRO A   2      13.354   3.753   8.083  0.00  0.00    -0.273 OA
BRANCH  56  66
ATOM     60  C   THR A   1      14.024  -0.369   8.407  0.00  0.00    +0.244 C 
ATOM     61  O   THR A   1      15.077   0.244   8.231  0.00  0.00    -0.273 OA
ATOM     62  N   PRO A   2      12.837   0.156   8.062  0.00  0.00    -0.272 N 
ATOM     63  CD  PRO A   2      11.480  -0.419   8.094  0.00  0.00    +0.094 C 
ATOM     64  CG  PRO A   2      10.604   0.798   7.852  0.00  0.00    +0.024 C 
ATOM     65  CB  PRO A   2      11.408   1.608   6.905  0.00  0.00    +0.031 C 
ATOM     66  CA  PRO A   2      12.823   1.497   7.471  0.00  0.00    +0.152 C 
BRANCH  60  67
ATOM     67  CA  THR A   1      14.038  -1.767   9.022  0.00  0.00    +0.172 C 
BRANCH  67  68
ATOM     68  N   THR A   1      15.215  -2.466   8.516  0.00  0.00    -0.236 NA
ATOM     69  H   THR A   1      16.122  -2.354   9.012  0.00  0.00    +0.142 HD
ENDBRANCH  67  68
BRANCH  67  70
ATOM     70  CB  THR A   1      14.087  -1.647  10.561  0.00  0.00    +0.135 C 
ATOM     71  CG2 THR A   1      15.419  -1.030  11.014  0.00  0.00    +0.034 C 
BRANCH  70  72
ATOM     72  OG1 THR A   1      13.004  -0.824  11.011  0.00  0.00    -0.383 OA
ATOM     73  HG1 THR A   1      13.085   0.076  10.607  0.00  0.00    +0.210 HD
ENDBRANCH  70  72
ENDBRANCH  67  70
ENDBRANCH  60  67
ENDBRANCH  56  66
ENDBRANCH  55  57
BRANCH  55  74
ATOM     74  CB  VAL A   3      12.133   4.035  11.111  0.00  0.00    +0.027 C 
ATOM     75  CG2 VAL A   3      12.415   5.214  12.013  0.00  0.00    +0.002 C 
ATOM     76  CG1 VAL A   3      11.145   3.067  11.757  0.00  0.00    +0.002 C 
ENDBRANCH  55  74
ENDBRANCH  51  55
ENDBRANCH  50  52
BRANCH  50  77
ATOM     77  CB  ASN A   4      16.768   3.752  14.322  0.00  0.00    +0.114 C 
BRANCH  77  78
ATOM     78  CG  ASN A   4      17.917   3.650  13.339  0.00  0.00    +0.222 C 
ATOM     79  OD1 ASN A   4      18.326   2.555  12.950  0.00  0.00    -0.275 OA
ATOM     80  ND2 ASN A   4      18.451   4.802  12.938  0.00  0.00    -0.329 N 
ATOM     81 HD21 ASN A   4      18.072   5.703  13.294  0.00  0.00    +0.145 HD
ATOM     82 HD22 ASN A   4      19.247   4.801  12.269  0.00  0.00    +0.145 HD
ENDBRANCH  77  78
ENDBRANCH  50  77
ENDBRANCH  46  50
ENDBRANCH  45  47
BRANCH  45  83
ATOM     83  CB  ILE A   5      12.364   0.539  16.308  0.00  0.00    +0.027 C 
ATOM     84  CG2 ILE A   5      11.461   0.162  17.472  0.00  0.00    +0.002 C 
BRANCH  83  85
ATOM     85  CG1 ILE A   5      11.573   0.944  15.067  0.00  0.00    +0.002 C 
ATOM     86  CD1 ILE A   5      10.926  -0.230  14.322  0.00  0.00    +0.000 C 
ENDBRANCH  83  85
ENDBRANCH  45  83
ENDBRANCH   1  45
TORSDOF 32
REMARK  Name = ../refined-set-2016/1z1h/1z1h_pocket.pdb
REMARK  217 active torsions:
REMARK  status: ('A' for Active; 'I' for Inactive)
REMARK    1  A    between atoms: _1  and  _3
REMARK    2  A    between atoms: _3  and  _4
REMARK    3  A    between atoms: _3  and  _6
REMARK    4  A    between atoms: _6  and  _7
REMARK    5  A    between atoms: _7  and  _8
REMARK    6  A    between atoms: _8  and  _9
REMARK    7  A    between atoms: _18  and  _20
REMARK    8  A    between atoms: _20  and  _21
REMARK    9  A    between atoms: _20  and  _23
REMARK   10  A    between atoms: _23  and  _24
REMARK   11  A    between atoms: _27  and  _29
REMARK   12  A    between atoms: _29  and  _30
REMARK   13  A    between atoms: _29  and  _32
REMARK   14  A    between atoms: _32  and  _33
REMARK   15  A    between atoms: _36  and  _38
REMARK   16  A    between atoms: _38  and  _39
REMARK   17  A    between atoms: _38  and  _41
REMARK   18  A    between atoms: _41  and  _42
REMARK   19  A    between atoms: _45  and  _47
REMARK   20  A    between atoms: _47  and  _48
REMARK   21  A    between atoms: _47  and  _50
REMARK   22  A    between atoms: _50  and  _51
REMARK   23  A    between atoms: _54  and  _56
REMARK   24  A    between atoms: _56  and  _57
REMARK   25  A    between atoms: _59  and  _61
REMARK   26  A    between atoms: _61  and  _62
REMARK   27  A    between atoms: _65  and  _67
REMARK   28  A    between atoms: _67  and  _68
REMARK   29  A    between atoms: _67  and  _70
REMARK   30  A    between atoms: _70  and  _71
REMARK   31  A    between atoms: _74  and  _76
REMARK   32  A    between atoms: _76  and  _77
REMARK   33  A    between atoms: _76  and  _79
REMARK   34  A    between atoms: _79  and  _80
REMARK   35  A    between atoms: _83  and  _85
REMARK   36  A    between atoms: _85  and  _86
REMARK   37  A    between atoms: _85  and  _88
REMARK   38  A    between atoms: _88  and  _89
REMARK   39  A    between atoms: _92  and  _94
REMARK   40  A    between atoms: _94  and  _95
REMARK   41  A    between atoms: _94  and  _97
REMARK   42  A    between atoms: _100  and  _102
REMARK   43  A    between atoms: _102  and  _103
REMARK   44  A    between atoms: _102  and  _105
REMARK   45  A    between atoms: _105  and  _106
REMARK   46  A    between atoms: _109  and  _111
REMARK   47  A    between atoms: _111  and  _112
REMARK   48  A    between atoms: _114  and  _116
REMARK   49  A    between atoms: _116  and  _117
REMARK   50  A    between atoms: _119  and  _121
REMARK   51  A    between atoms: _121  and  _122
REMARK   52  A    between atoms: _121  and  _124
REMARK   53  A    between atoms: _124  and  _125
REMARK   54  A    between atoms: _128  and  _130
REMARK   55  A    between atoms: _130  and  _131
REMARK   56  A    between atoms: _133  and  _135
REMARK   57  A    between atoms: _135  and  _136
REMARK   58  A    between atoms: _138  and  _140
REMARK   59  A    between atoms: _140  and  _141
REMARK   60  A    between atoms: _140  and  _143
REMARK   61  A    between atoms: _143  and  _144
REMARK   62  A    between atoms: _150  and  _152
REMARK   63  A    between atoms: _152  and  _153
REMARK   64  A    between atoms: _152  and  _155
REMARK   65  A    between atoms: _155  and  _156
REMARK   66  A    between atoms: _159  and  _161
REMARK   67  A    between atoms: _161  and  _162
REMARK   68  A    between atoms: _161  and  _164
REMARK   69  A    between atoms: _164  and  _165
REMARK   70  A    between atoms: _168  and  _170
REMARK   71  A    between atoms: _170  and  _171
REMARK   72  A    between atoms: _170  and  _173
REMARK   73  A    between atoms: _173  and  _174
REMARK   74  A    between atoms: _178  and  _179
REMARK   75  A    between atoms: _184  and  _186
REMARK   76  A    between atoms: _186  and  _187
REMARK   77  A    between atoms: _186  and  _189
REMARK   78  A    between atoms: _192  and  _194
REMARK   79  A    between atoms: _194  and  _195
REMARK   80  A    between atoms: _194  and  _197
REMARK   81  A    between atoms: _197  and  _198
REMARK   82  A    between atoms: _203  and  _205
REMARK   83  A    between atoms: _205  and  _206
REMARK   84  A    between atoms: _205  and  _208
REMARK   85  A    between atoms: _208  and  _209
REMARK   86  A    between atoms: _212  and  _214
REMARK   87  A    between atoms: _214  and  _215
REMARK   88  A    between atoms: _214  and  _217
REMARK   89  A    between atoms: _217  and  _218
REMARK   90  A    between atoms: _221  and  _223
REMARK   91  A    between atoms: _223  and  _224
REMARK   92  A    between atoms: _226  and  _228
REMARK   93  A    between atoms: _228  and  _229
REMARK   94  A    between atoms: _228  and  _231
REMARK   95  A    between atoms: _231  and  _232
REMARK   96  A    between atoms: _232  and  _233
REMARK   97  A    between atoms: _233  and  _234
REMARK   98  A    between atoms: _243  and  _245
REMARK   99  A    between atoms: _245  and  _246
REMARK  100  A    between atoms: _245  and  _248
REMARK  101  A    between atoms: _248  and  _249
REMARK  102  A    between atoms: _254  and  _256
REMARK  103  A    between atoms: _256  and  _257
REMARK  104  A    between atoms: _256  and  _259
REMARK  105  A    between atoms: _259  and  _260
REMARK  106  A    between atoms: _260  and  _261
REMARK  107  A    between atoms: _261  and  _262
REMARK  108  A    between atoms: _271  and  _273
REMARK  109  A    between atoms: _273  and  _274
REMARK  110  A    between atoms: _273  and  _276
REMARK  111  A    between atoms: _276  and  _277
REMARK  112  A    between atoms: _280  and  _282
REMARK  113  A    between atoms: _282  and  _283
REMARK  114  A    between atoms: _282  and  _285
REMARK  115  A    between atoms: _285  and  _286
REMARK  116  A    between atoms: _289  and  _291
REMARK  117  A    between atoms: _291  and  _292
REMARK  118  A    between atoms: _291  and  _294
REMARK  119  A    between atoms: _294  and  _295
REMARK  120  A    between atoms: _298  and  _300
REMARK  121  A    between atoms: _300  and  _301
REMARK  122  A    between atoms: _300  and  _303
REMARK  123  A    between atoms: _303  and  _304
REMARK  124  A    between atoms: _307  and  _309
REMARK  125  A    between atoms: _309  and  _310
REMARK  126  A    between atoms: _312  and  _314
REMARK  127  A    between atoms: _314  and  _315
REMARK  128  A    between atoms: _318  and  _320
REMARK  129  A    between atoms: _320  and  _321
REMARK  130  A    between atoms: _320  and  _323
REMARK  131  A    between atoms: _323  and  _324
REMARK  132  A    between atoms: _327  and  _329
REMARK  133  A    between atoms: _329  and  _330
REMARK  134  A    between atoms: _329  and  _332
REMARK  135  A    between atoms: _332  and  _333
REMARK  136  A    between atoms: _336  and  _338
REMARK  137  A    between atoms: _338  and  _339
REMARK  138  A    between atoms: _338  and  _341
REMARK  139  A    between atoms: _341  and  _342
REMARK  140  A    between atoms: _345  and  _347
REMARK  141  A    between atoms: _347  and  _348
REMARK  142  A    between atoms: _347  and  _350
REMARK  143  A    between atoms: _353  and  _355
REMARK  144  A    between atoms: _355  and  _356
REMARK  145  A    between atoms: _355  and  _358
REMARK  146  A    between atoms: _358  and  _359
REMARK  147  A    between atoms: _359  and  _360
REMARK  148  A    between atoms: _360  and  _361
REMARK  149  A    between atoms: _361  and  _362
REMARK  150  A    between atoms: _366  and  _368
REMARK  151  A    between atoms: _368  and  _369
REMARK  152  A    between atoms: _368  and  _371
REMARK  153  A    between atoms: _371  and  _372
REMARK  154  A    between atoms: _372  and  _373
REMARK  155  A    between atoms: _375  and  _377
REMARK  156  A    between atoms: _377  and  _378
REMARK  157  A    between atoms: _377  and  _380
REMARK  158  A    between atoms: _380  and  _381
REMARK  159  A    between atoms: _384  and  _386
REMARK  160  A    between atoms: _386  and  _387
REMARK  161  A    between atoms: _389  and  _391
REMARK  162  A    between atoms: _391  and  _392
REMARK  163  A    between atoms: _394  and  _396
REMARK  164  A    between atoms: _396  and  _397
REMARK  165  A    between atoms: _396  and  _399
REMARK  166  A    between atoms: _399  and  _400
REMARK  167  A    between atoms: _403  and  _405
REMARK  168  A    between atoms: _405  and  _406
REMARK  169  A    between atoms: _408  and  _410
REMARK  170  A    between atoms: _410  and  _411
REMARK  171  A    between atoms: _413  and  _415
REMARK  172  A    between atoms: _415  and  _416
REMARK  173  A    between atoms: _415  and  _418
REMARK  174  A    between atoms: _418  and  _419
REMARK  175  A    between atoms: _425  and  _427
REMARK  176  A    between atoms: _427  and  _428
REMARK  177  A    between atoms: _427  and  _430
REMARK  178  A    between atoms: _430  and  _431
REMARK  179  A    between atoms: _434  and  _436
REMARK  180  A    between atoms: _436  and  _437
REMARK  181  A    between atoms: _436  and  _439
REMARK  182  A    between atoms: _442  and  _444
REMARK  183  A    between atoms: _444  and  _445
REMARK  184  A    between atoms: _444  and  _447
REMARK  185  A    between atoms: _447  and  _448
REMARK  186  A    between atoms: _451  and  _453
REMARK  187  A    between atoms: _453  and  _454
REMARK  188  A    between atoms: _453  and  _456
REMARK  189  A    between atoms: _456  and  _457
REMARK  190  A    between atoms: _461  and  _462
REMARK  191  A    between atoms: _467  and  _469
REMARK  192  A    between atoms: _469  and  _470
REMARK  193  A    between atoms: _469  and  _472
REMARK  194  A    between atoms: _475  and  _477
REMARK  195  A    between atoms: _477  and  _478
REMARK  196  A    between atoms: _477  and  _480
REMARK  197  A    between atoms: _480  and  _481
REMARK  198  A    between atoms: _486  and  _488
REMARK  199  A    between atoms: _488  and  _489
REMARK  200  A    between atoms: _488  and  _491
REMARK  201  A    between atoms: _491  and  _492
REMARK  202  A    between atoms: _495  and  _497
REMARK  203  A    between atoms: _497  and  _498
REMARK  204  A    between atoms: _497  and  _500
REMARK  205  A    between atoms: _500  and  _501
REMARK  206  A    between atoms: _504  and  _506
REMARK  207  A    between atoms: _506  and  _507
REMARK  208  A    between atoms: _509  and  _511
REMARK  209  A    between atoms: _511  and  _512
REMARK  210  A    between atoms: _511  and  _514
REMARK  211  A    between atoms: _514  and  _515
REMARK  212  A    between atoms: _515  and  _516
REMARK  213  A    between atoms: _516  and  _517
REMARK  214  A    between atoms: _526  and  _528
REMARK  215  A    between atoms: _528  and  _529
REMARK  216  A    between atoms: _528  and  _531
REMARK  217  A    between atoms: _531  and  _532
REMARK                            x       y       z     vdW  Elec       q    Type
REMARK                         _______ _______ _______ _____ _____    ______ ____
ROOT
ATOM      1  O   HOH     1       5.242  -3.178  11.886  0.00  0.00    +0.000 OA
ENDROOT
TORSDOF 0
REMARK  Name = ../refined-set-2016/1z1h/1z1h_pocket.pdb
REMARK  217 active torsions:
REMARK  status: ('A' for Active; 'I' for Inactive)
REMARK    1  A    between atoms: _1  and  _3
REMARK    2  A    between atoms: _3  and  _4
REMARK    3  A    between atoms: _3  and  _6
REMARK    4  A    between atoms: _6  and  _7
REMARK    5  A    between atoms: _7  and  _8
REMARK    6  A    between atoms: _8  and  _9
REMARK    7  A    between atoms: _18  and  _20
REMARK    8  A    between atoms: _20  and  _21
REMARK    9  A    between atoms: _20  and  _23
REMARK   10  A    between atoms: _23  and  _24
REMARK   11  A    between atoms: _27  and  _29
REMARK   12  A    between atoms: _29  and  _30
REMARK   13  A    between atoms: _29  and  _32
REMARK   14  A    between atoms: _32  and  _33
REMARK   15  A    between atoms: _36  and  _38
REMARK   16  A    between atoms: _38  and  _39
REMARK   17  A    between atoms: _38  and  _41
REMARK   18  A    between atoms: _41  and  _42
REMARK   19  A    between atoms: _45  and  _47
REMARK   20  A    between atoms: _47  and  _48
REMARK   21  A    between atoms: _47  and  _50
REMARK   22  A    between atoms: _50  and  _51
REMARK   23  A    between atoms: _54  and  _56
REMARK   24  A    between atoms: _56  and  _57
REMARK   25  A    between atoms: _59  and  _61
REMARK   26  A    between atoms: _61  and  _62
REMARK   27  A    between atoms: _65  and  _67
REMARK   28  A    between atoms: _67  and  _68
REMARK   29  A    between atoms: _67  and  _70
REMARK   30  A    between atoms: _70  and  _71
REMARK   31  A    between atoms: _74  and  _76
REMARK   32  A    between atoms: _76  and  _77
REMARK   33  A    between atoms: _76  and  _79
REMARK   34  A    between atoms: _79  and  _80
REMARK   35  A    between atoms: _83  and  _85
REMARK   36  A    between atoms: _85  and  _86
REMARK   37  A    between atoms: _85  and  _88
REMARK   38  A    between atoms: _88  and  _89
REMARK   39  A    between atoms: _92  and  _94
REMARK   40  A    between atoms: _94  and  _95
REMARK   41  A    between atoms: _94  and  _97
REMARK   42  A    between atoms: _100  and  _102
REMARK   43  A    between atoms: _102  and  _103
REMARK   44  A    between atoms: _102  and  _105
REMARK   45  A    between atoms: _105  and  _106
REMARK   46  A    between atoms: _109  and  _111
REMARK   47  A    between atoms: _111  and  _112
REMARK   48  A    between atoms: _114  and  _116
REMARK   49  A    between atoms: _116  and  _117
REMARK   50  A    between atoms: _119  and  _121
REMARK   51  A    between atoms: _121  and  _122
REMARK   52  A    between atoms: _121  and  _124
REMARK   53  A    between atoms: _124  and  _125
REMARK   54  A    between atoms: _128  and  _130
REMARK   55  A    between atoms: _130  and  _131
REMARK   56  A    between atoms: _133  and  _135
REMARK   57  A    between atoms: _135  and  _136
REMARK   58  A    between atoms: _138  and  _140
REMARK   59  A    between atoms: _140  and  _141
REMARK   60  A    between atoms: _140  and  _143
REMARK   61  A    between atoms: _143  and  _144
REMARK   62  A    between atoms: _150  and  _152
REMARK   63  A    between atoms: _152  and  _153
REMARK   64  A    between atoms: _152  and  _155
REMARK   65  A    between atoms: _155  and  _156
REMARK   66  A    between atoms: _159  and  _161
REMARK   67  A    between atoms: _161  and  _162
REMARK   68  A    between atoms: _161  and  _164
REMARK   69  A    between atoms: _164  and  _165
REMARK   70  A    between atoms: _168  and  _170
REMARK   71  A    between atoms: _170  and  _171
REMARK   72  A    between atoms: _170  and  _173
REMARK   73  A    between atoms: _173  and  _174
REMARK   74  A    between atoms: _178  and  _179
REMARK   75  A    between atoms: _184  and  _186
REMARK   76  A    between atoms: _186  and  _187
REMARK   77  A    between atoms: _186  and  _189
REMARK   78  A    between atoms: _192  and  _194
REMARK   79  A    between atoms: _194  and  _195
REMARK   80  A    between atoms: _194  and  _197
REMARK   81  A    between atoms: _197  and  _198
REMARK   82  A    between atoms: _203  and  _205
REMARK   83  A    between atoms: _205  and  _206
REMARK   84  A    between atoms: _205  and  _208
REMARK   85  A    between atoms: _208  and  _209
REMARK   86  A    between atoms: _212  and  _214
REMARK   87  A    between atoms: _214  and  _215
REMARK   88  A    between atoms: _214  and  _217
REMARK   89  A    between atoms: _217  and  _218
REMARK   90  A    between atoms: _221  and  _223
REMARK   91  A    between atoms: _223  and  _224
REMARK   92  A    between atoms: _226  and  _228
REMARK   93  A    between atoms: _228  and  _229
REMARK   94  A    between atoms: _228  and  _231
REMARK   95  A    between atoms: _231  and  _232
REMARK   96  A    between atoms: _232  and  _233
REMARK   97  A    between atoms: _233  and  _234
REMARK   98  A    between atoms: _243  and  _245
REMARK   99  A    between atoms: _245  and  _246
REMARK  100  A    between atoms: _245  and  _248
REMARK  101  A    between atoms: _248  and  _249
REMARK  102  A    between atoms: _254  and  _256
REMARK  103  A    between atoms: _256  and  _257
REMARK  104  A    between atoms: _256  and  _259
REMARK  105  A    between atoms: _259  and  _260
REMARK  106  A    between atoms: _260  and  _261
REMARK  107  A    between atoms: _261  and  _262
REMARK  108  A    between atoms: _271  and  _273
REMARK  109  A    between atoms: _273  and  _274
REMARK  110  A    between atoms: _273  and  _276
REMARK  111  A    between atoms: _276  and  _277
REMARK  112  A    between atoms: _280  and  _282
REMARK  113  A    between atoms: _282  and  _283
REMARK  114  A    between atoms: _282  and  _285
REMARK  115  A    between atoms: _285  and  _286
REMARK  116  A    between atoms: _289  and  _291
REMARK  117  A    between atoms: _291  and  _292
REMARK  118  A    between atoms: _291  and  _294
REMARK  119  A    between atoms: _294  and  _295
REMARK  120  A    between atoms: _298  and  _300
REMARK  121  A    between atoms: _300  and  _301
REMARK  122  A    between atoms: _300  and  _303
REMARK  123  A    between atoms: _303  and  _304
REMARK  124  A    between atoms: _307  and  _309
REMARK  125  A    between atoms: _309  and  _310
REMARK  126  A    between atoms: _312  and  _314
REMARK  127  A    between atoms: _314  and  _315
REMARK  128  A    between atoms: _318  and  _320
REMARK  129  A    between atoms: _320  and  _321
REMARK  130  A    between atoms: _320  and  _323
REMARK  131  A    between atoms: _323  and  _324
REMARK  132  A    between atoms: _327  and  _329
REMARK  133  A    between atoms: _329  and  _330
REMARK  134  A    between atoms: _329  and  _332
REMARK  135  A    between atoms: _332  and  _333
REMARK  136  A    between atoms: _336  and  _338
REMARK  137  A    between atoms: _338  and  _339
REMARK  138  A    between atoms: _338  and  _341
REMARK  139  A    between atoms: _341  and  _342
REMARK  140  A    between atoms: _345  and  _347
REMARK  141  A    between atoms: _347  and  _348
REMARK  142  A    between atoms: _347  and  _350
REMARK  143  A    between atoms: _353  and  _355
REMARK  144  A    between atoms: _355  and  _356
REMARK  145  A    between atoms: _355  and  _358
REMARK  146  A    between atoms: _358  and  _359
REMARK  147  A    between atoms: _359  and  _360
REMARK  148  A    between atoms: _360  and  _361
REMARK  149  A    between atoms: _361  and  _362
REMARK  150  A    between atoms: _366  and  _368
REMARK  151  A    between atoms: _368  and  _369
REMARK  152  A    between atoms: _368  and  _371
REMARK  153  A    between atoms: _371  and  _372
REMARK  154  A    between atoms: _372  and  _373
REMARK  155  A    between atoms: _375  and  _377
REMARK  156  A    between atoms: _377  and  _378
REMARK  157  A    between atoms: _377  and  _380
REMARK  158  A    between atoms: _380  and  _381
REMARK  159  A    between atoms: _384  and  _386
REMARK  160  A    between atoms: _386  and  _387
REMARK  161  A    between atoms: _389  and  _391
REMARK  162  A    between atoms: _391  and  _392
REMARK  163  A    between atoms: _394  and  _396
REMARK  164  A    between atoms: _396  and  _397
REMARK  165  A    between atoms: _396  and  _399
REMARK  166  A    between atoms: _399  and  _400
REMARK  167  A    between atoms: _403  and  _405
REMARK  168  A    between atoms: _405  and  _406
REMARK  169  A    between atoms: _408  and  _410
REMARK  170  A    between atoms: _410  and  _411
REMARK  171  A    between atoms: _413  and  _415
REMARK  172  A    between atoms: _415  and  _416
REMARK  173  A    between atoms: _415  and  _418
REMARK  174  A    between atoms: _418  and  _419
REMARK  175  A    between atoms: _425  and  _427
REMARK  176  A    between atoms: _427  and  _428
REMARK  177  A    between atoms: _427  and  _430
REMARK  178  A    between atoms: _430  and  _431
REMARK  179  A    between atoms: _434  and  _436
REMARK  180  A    between atoms: _436  and  _437
REMARK  181  A    between atoms: _436  and  _439
REMARK  182  A    between atoms: _442  and  _444
REMARK  183  A    between atoms: _444  and  _445
REMARK  184  A    between atoms: _444  and  _447
REMARK  185  A    between atoms: _447  and  _448
REMARK  186  A    between atoms: _451  and  _453
REMARK  187  A    between atoms: _453  and  _454
REMARK  188  A    between atoms: _453  and  _456
REMARK  189  A    between atoms: _456  and  _457
REMARK  190  A    between atoms: _461  and  _462
REMARK  191  A    between atoms: _467  and  _469
REMARK  192  A    between atoms: _469  and  _470
REMARK  193  A    between atoms: _469  and  _472
REMARK  194  A    between atoms: _475  and  _477
REMARK  195  A    between atoms: _477  and  _478
REMARK  196  A    between atoms: _477  and  _480
REMARK  197  A    between atoms: _480  and  _481
REMARK  198  A    between atoms: _486  and  _488
REMARK  199  A    between atoms: _488  and  _489
REMARK  200  A    between atoms: _488  and  _491
REMARK  201  A    between atoms: _491  and  _492
REMARK  202  A    between atoms: _495  and  _497
REMARK  203  A    between atoms: _497  and  _498
REMARK  204  A    between atoms: _497  and  _500
REMARK  205  A    between atoms: _500  and  _501
REMARK  206  A    between atoms: _504  and  _506
REMARK  207  A    between atoms: _506  and  _507
REMARK  208  A    between atoms: _509  and  _511
REMARK  209  A    between atoms: _511  and  _512
REMARK  210  A    between atoms: _511  and  _514
REMARK  211  A    between atoms: _514  and  _515
REMARK  212  A    between atoms: _515  and  _516
REMARK  213  A    between atoms: _516  and  _517
REMARK  214  A    between atoms: _526  and  _528
REMARK  215  A    between atoms: _528  and  _529
REMARK  216  A    between atoms: _528  and  _531
REMARK  217  A    between atoms: _531  and  _532
REMARK                            x       y       z     vdW  Elec       q    Type
REMARK                         _______ _______ _______ _____ _____    ______ ____
ROOT
ATOM      1  O   HOH     1      -0.342  10.403  13.453  0.00  0.00    +0.000 OA
ENDROOT
TORSDOF 0
REMARK  Name = ../refined-set-2016/1z1h/1z1h_pocket.pdb
REMARK  217 active torsions:
REMARK  status: ('A' for Active; 'I' for Inactive)
REMARK    1  A    between atoms: _1  and  _3
REMARK    2  A    between atoms: _3  and  _4
REMARK    3  A    between atoms: _3  and  _6
REMARK    4  A    between atoms: _6  and  _7
REMARK    5  A    between atoms: _7  and  _8
REMARK    6  A    between atoms: _8  and  _9
REMARK    7  A    between atoms: _18  and  _20
REMARK    8  A    between atoms: _20  and  _21
REMARK    9  A    between atoms: _20  and  _23
REMARK   10  A    between atoms: _23  and  _24
REMARK   11  A    between atoms: _27  and  _29
REMARK   12  A    between atoms: _29  and  _30
REMARK   13  A    between atoms: _29  and  _32
REMARK   14  A    between atoms: _32  and  _33
REMARK   15  A    between atoms: _36  and  _38
REMARK   16  A    between atoms: _38  and  _39
REMARK   17  A    between atoms: _38  and  _41
REMARK   18  A    between atoms: _41  and  _42
REMARK   19  A    between atoms: _45  and  _47
REMARK   20  A    between atoms: _47  and  _48
REMARK   21  A    between atoms: _47  and  _50
REMARK   22  A    between atoms: _50  and  _51
REMARK   23  A    between atoms: _54  and  _56
REMARK   24  A    between atoms: _56  and  _57
REMARK   25  A    between atoms: _59  and  _61
REMARK   26  A    between atoms: _61  and  _62
REMARK   27  A    between atoms: _65  and  _67
REMARK   28  A    between atoms: _67  and  _68
REMARK   29  A    between atoms: _67  and  _70
REMARK   30  A    between atoms: _70  and  _71
REMARK   31  A    between atoms: _74  and  _76
REMARK   32  A    between atoms: _76  and  _77
REMARK   33  A    between atoms: _76  and  _79
REMARK   34  A    between atoms: _79  and  _80
REMARK   35  A    between atoms: _83  and  _85
REMARK   36  A    between atoms: _85  and  _86
REMARK   37  A    between atoms: _85  and  _88
REMARK   38  A    between atoms: _88  and  _89
REMARK   39  A    between atoms: _92  and  _94
REMARK   40  A    between atoms: _94  and  _95
REMARK   41  A    between atoms: _94  and  _97
REMARK   42  A    between atoms: _100  and  _102
REMARK   43  A    between atoms: _102  and  _103
REMARK   44  A    between atoms: _102  and  _105
REMARK   45  A    between atoms: _105  and  _106
REMARK   46  A    between atoms: _109  and  _111
REMARK   47  A    between atoms: _111  and  _112
REMARK   48  A    between atoms: _114  and  _116
REMARK   49  A    between atoms: _116  and  _117
REMARK   50  A    between atoms: _119  and  _121
REMARK   51  A    between atoms: _121  and  _122
REMARK   52  A    between atoms: _121  and  _124
REMARK   53  A    between atoms: _124  and  _125
REMARK   54  A    between atoms: _128  and  _130
REMARK   55  A    between atoms: _130  and  _131
REMARK   56  A    between atoms: _133  and  _135
REMARK   57  A    between atoms: _135  and  _136
REMARK   58  A    between atoms: _138  and  _140
REMARK   59  A    between atoms: _140  and  _141
REMARK   60  A    between atoms: _140  and  _143
REMARK   61  A    between atoms: _143  and  _144
REMARK   62  A    between atoms: _150  and  _152
REMARK   63  A    between atoms: _152  and  _153
REMARK   64  A    between atoms: _152  and  _155
REMARK   65  A    between atoms: _155  and  _156
REMARK   66  A    between atoms: _159  and  _161
REMARK   67  A    between atoms: _161  and  _162
REMARK   68  A    between atoms: _161  and  _164
REMARK   69  A    between atoms: _164  and  _165
REMARK   70  A    between atoms: _168  and  _170
REMARK   71  A    between atoms: _170  and  _171
REMARK   72  A    between atoms: _170  and  _173
REMARK   73  A    between atoms: _173  and  _174
REMARK   74  A    between atoms: _178  and  _179
REMARK   75  A    between atoms: _184  and  _186
REMARK   76  A    between atoms: _186  and  _187
REMARK   77  A    between atoms: _186  and  _189
REMARK   78  A    between atoms: _192  and  _194
REMARK   79  A    between atoms: _194  and  _195
REMARK   80  A    between atoms: _194  and  _197
REMARK   81  A    between atoms: _197  and  _198
REMARK   82  A    between atoms: _203  and  _205
REMARK   83  A    between atoms: _205  and  _206
REMARK   84  A    between atoms: _205  and  _208
REMARK   85  A    between atoms: _208  and  _209
REMARK   86  A    between atoms: _212  and  _214
REMARK   87  A    between atoms: _214  and  _215
REMARK   88  A    between atoms: _214  and  _217
REMARK   89  A    between atoms: _217  and  _218
REMARK   90  A    between atoms: _221  and  _223
REMARK   91  A    between atoms: _223  and  _224
REMARK   92  A    between atoms: _226  and  _228
REMARK   93  A    between atoms: _228  and  _229
REMARK   94  A    between atoms: _228  and  _231
REMARK   95  A    between atoms: _231  and  _232
REMARK   96  A    between atoms: _232  and  _233
REMARK   97  A    between atoms: _233  and  _234
REMARK   98  A    between atoms: _243  and  _245
REMARK   99  A    between atoms: _245  and  _246
REMARK  100  A    between atoms: _245  and  _248
REMARK  101  A    between atoms: _248  and  _249
REMARK  102  A    between atoms: _254  and  _256
REMARK  103  A    between atoms: _256  and  _257
REMARK  104  A    between atoms: _256  and  _259
REMARK  105  A    between atoms: _259  and  _260
REMARK  106  A    between atoms: _260  and  _261
REMARK  107  A    between atoms: _261  and  _262
REMARK  108  A    between atoms: _271  and  _273
REMARK  109  A    between atoms: _273  and  _274
REMARK  110  A    between atoms: _273  and  _276
REMARK  111  A    between atoms: _276  and  _277
REMARK  112  A    between atoms: _280  and  _282
REMARK  113  A    between atoms: _282  and  _283
REMARK  114  A    between atoms: _282  and  _285
REMARK  115  A    between atoms: _285  and  _286
REMARK  116  A    between atoms: _289  and  _291
REMARK  117  A    between atoms: _291  and  _292
REMARK  118  A    between atoms: _291  and  _294
REMARK  119  A    between atoms: _294  and  _295
REMARK  120  A    between atoms: _298  and  _300
REMARK  121  A    between atoms: _300  and  _301
REMARK  122  A    between atoms: _300  and  _303
REMARK  123  A    between atoms: _303  and  _304
REMARK  124  A    between atoms: _307  and  _309
REMARK  125  A    between atoms: _309  and  _310
REMARK  126  A    between atoms: _312  and  _314
REMARK  127  A    between atoms: _314  and  _315
REMARK  128  A    between atoms: _318  and  _320
REMARK  129  A    between atoms: _320  and  _321
REMARK  130  A    between atoms: _320  and  _323
REMARK  131  A    between atoms: _323  and  _324
REMARK  132  A    between atoms: _327  and  _329
REMARK  133  A    between atoms: _329  and  _330
REMARK  134  A    between atoms: _329  and  _332
REMARK  135  A    between atoms: _332  and  _333
REMARK  136  A    between atoms: _336  and  _338
REMARK  137  A    between atoms: _338  and  _339
REMARK  138  A    between atoms: _338  and  _341
REMARK  139  A    between atoms: _341  and  _342
REMARK  140  A    between atoms: _345  and  _347
REMARK  141  A    between atoms: _347  and  _348
REMARK  142  A    between atoms: _347  and  _350
REMARK  143  A    between atoms: _353  and  _355
REMARK  144  A    between atoms: _355  and  _356
REMARK  145  A    between atoms: _355  and  _358
REMARK  146  A    between atoms: _358  and  _359
REMARK  147  A    between atoms: _359  and  _360
REMARK  148  A    between atoms: _360  and  _361
REMARK  149  A    between atoms: _361  and  _362
REMARK  150  A    between atoms: _366  and  _368
REMARK  151  A    between atoms: _368  and  _369
REMARK  152  A    between atoms: _368  and  _371
REMARK  153  A    between atoms: _371  and  _372
REMARK  154  A    between atoms: _372  and  _373
REMARK  155  A    between atoms: _375  and  _377
REMARK  156  A    between atoms: _377  and  _378
REMARK  157  A    between atoms: _377  and  _380
REMARK  158  A    between atoms: _380  and  _381
REMARK  159  A    between atoms: _384  and  _386
REMARK  160  A    between atoms: _386  and  _387
REMARK  161  A    between atoms: _389  and  _391
REMARK  162  A    between atoms: _391  and  _392
REMARK  163  A    between atoms: _394  and  _396
REMARK  164  A    between atoms: _396  and  _397
REMARK  165  A    between atoms: _396  and  _399
REMARK  166  A    between atoms: _399  and  _400
REMARK  167  A    between atoms: _403  and  _405
REMARK  168  A    between atoms: _405  and  _406
REMARK  169  A    between atoms: _408  and  _410
REMARK  170  A    between atoms: _410  and  _411
REMARK  171  A    between atoms: _413  and  _415
REMARK  172  A    between atoms: _415  and  _416
REMARK  173  A    between atoms: _415  and  _418
REMARK  174  A    between atoms: _418  and  _419
REMARK  175  A    between atoms: _425  and  _427
REMARK  176  A    between atoms: _427  and  _428
REMARK  177  A    between atoms: _427  and  _430
REMARK  178  A    between atoms: _430  and  _431
REMARK  179  A    between atoms: _434  and  _436
REMARK  180  A    between atoms: _436  and  _437
REMARK  181  A    between atoms: _436  and  _439
REMARK  182  A    between atoms: _442  and  _444
REMARK  183  A    between atoms: _444  and  _445
REMARK  184  A    between atoms: _444  and  _447
REMARK  185  A    between atoms: _447  and  _448
REMARK  186  A    between atoms: _451  and  _453
REMARK  187  A    between atoms: _453  and  _454
REMARK  188  A    between atoms: _453  and  _456
REMARK  189  A    between atoms: _456  and  _457
REMARK  190  A    between atoms: _461  and  _462
REMARK  191  A    between atoms: _467  and  _469
REMARK  192  A    between atoms: _469  and  _470
REMARK  193  A    between atoms: _469  and  _472
REMARK  194  A    between atoms: _475  and  _477
REMARK  195  A    between atoms: _477  and  _478
REMARK  196  A    between atoms: _477  and  _480
REMARK  197  A    between atoms: _480  and  _481
REMARK  198  A    between atoms: _486  and  _488
REMARK  199  A    between atoms: _488  and  _489
REMARK  200  A    between atoms: _488  and  _491
REMARK  201  A    between atoms: _491  and  _492
REMARK  202  A    between atoms: _495  and  _497
REMARK  203  A    between atoms: _497  and  _498
REMARK  204  A    between atoms: _497  and  _500
REMARK  205  A    between atoms: _500  and  _501
REMARK  206  A    between atoms: _504  and  _506
REMARK  207  A    between atoms: _506  and  _507
REMARK  208  A    between atoms: _509  and  _511
REMARK  209  A    between atoms: _511  and  _512
REMARK  210  A    between atoms: _511  and  _514
REMARK  211  A    between atoms: _514  and  _515
REMARK  212  A    between atoms: _515  and  _516
REMARK  213  A    between atoms: _516  and  _517
REMARK  214  A    between atoms: _526  and  _528
REMARK  215  A    between atoms: _528  and  _529
REMARK  216  A    between atoms: _528  and  _531
REMARK  217  A    between atoms: _531  and  _532
REMARK                            x       y       z     vdW  Elec       q    Type
REMARK                         _______ _______ _______ _____ _____    ______ ____
ROOT
ATOM      1  O   HOH     1      -5.830   5.799  12.262  0.00  0.00    +0.000 OA
ENDROOT
TORSDOF 0
REMARK  Name = ../refined-set-2016/1z1h/1z1h_pocket.pdb
REMARK  217 active torsions:
REMARK  status: ('A' for Active; 'I' for Inactive)
REMARK    1  A    between atoms: _1  and  _3
REMARK    2  A    between atoms: _3  and  _4
REMARK    3  A    between atoms: _3  and  _6
REMARK    4  A    between atoms: _6  and  _7
REMARK    5  A    between atoms: _7  and  _8
REMARK    6  A    between atoms: _8  and  _9
REMARK    7  A    between atoms: _18  and  _20
REMARK    8  A    between atoms: _20  and  _21
REMARK    9  A    between atoms: _20  and  _23
REMARK   10  A    between atoms: _23  and  _24
REMARK   11  A    between atoms: _27  and  _29
REMARK   12  A    between atoms: _29  and  _30
REMARK   13  A    between atoms: _29  and  _32
REMARK   14  A    between atoms: _32  and  _33
REMARK   15  A    between atoms: _36  and  _38
REMARK   16  A    between atoms: _38  and  _39
REMARK   17  A    between atoms: _38  and  _41
REMARK   18  A    between atoms: _41  and  _42
REMARK   19  A    between atoms: _45  and  _47
REMARK   20  A    between atoms: _47  and  _48
REMARK   21  A    between atoms: _47  and  _50
REMARK   22  A    between atoms: _50  and  _51
REMARK   23  A    between atoms: _54  and  _56
REMARK   24  A    between atoms: _56  and  _57
REMARK   25  A    between atoms: _59  and  _61
REMARK   26  A    between atoms: _61  and  _62
REMARK   27  A    between atoms: _65  and  _67
REMARK   28  A    between atoms: _67  and  _68
REMARK   29  A    between atoms: _67  and  _70
REMARK   30  A    between atoms: _70  and  _71
REMARK   31  A    between atoms: _74  and  _76
REMARK   32  A    between atoms: _76  and  _77
REMARK   33  A    between atoms: _76  and  _79
REMARK   34  A    between atoms: _79  and  _80
REMARK   35  A    between atoms: _83  and  _85
REMARK   36  A    between atoms: _85  and  _86
REMARK   37  A    between atoms: _85  and  _88
REMARK   38  A    between atoms: _88  and  _89
REMARK   39  A    between atoms: _92  and  _94
REMARK   40  A    between atoms: _94  and  _95
REMARK   41  A    between atoms: _94  and  _97
REMARK   42  A    between atoms: _100  and  _102
REMARK   43  A    between atoms: _102  and  _103
REMARK   44  A    between atoms: _102  and  _105
REMARK   45  A    between atoms: _105  and  _106
REMARK   46  A    between atoms: _109  and  _111
REMARK   47  A    between atoms: _111  and  _112
REMARK   48  A    between atoms: _114  and  _116
REMARK   49  A    between atoms: _116  and  _117
REMARK   50  A    between atoms: _119  and  _121
REMARK   51  A    between atoms: _121  and  _122
REMARK   52  A    between atoms: _121  and  _124
REMARK   53  A    between atoms: _124  and  _125
REMARK   54  A    between atoms: _128  and  _130
REMARK   55  A    between atoms: _130  and  _131
REMARK   56  A    between atoms: _133  and  _135
REMARK   57  A    between atoms: _135  and  _136
REMARK   58  A    between atoms: _138  and  _140
REMARK   59  A    between atoms: _140  and  _141
REMARK   60  A    between atoms: _140  and  _143
REMARK   61  A    between atoms: _143  and  _144
REMARK   62  A    between atoms: _150  and  _152
REMARK   63  A    between atoms: _152  and  _153
REMARK   64  A    between atoms: _152  and  _155
REMARK   65  A    between atoms: _155  and  _156
REMARK   66  A    between atoms: _159  and  _161
REMARK   67  A    between atoms: _161  and  _162
REMARK   68  A    between atoms: _161  and  _164
REMARK   69  A    between atoms: _164  and  _165
REMARK   70  A    between atoms: _168  and  _170
REMARK   71  A    between atoms: _170  and  _171
REMARK   72  A    between atoms: _170  and  _173
REMARK   73  A    between atoms: _173  and  _174
REMARK   74  A    between atoms: _178  and  _179
REMARK   75  A    between atoms: _184  and  _186
REMARK   76  A    between atoms: _186  and  _187
REMARK   77  A    between atoms: _186  and  _189
REMARK   78  A    between atoms: _192  and  _194
REMARK   79  A    between atoms: _194  and  _195
REMARK   80  A    between atoms: _194  and  _197
REMARK   81  A    between atoms: _197  and  _198
REMARK   82  A    between atoms: _203  and  _205
REMARK   83  A    between atoms: _205  and  _206
REMARK   84  A    between atoms: _205  and  _208
REMARK   85  A    between atoms: _208  and  _209
REMARK   86  A    between atoms: _212  and  _214
REMARK   87  A    between atoms: _214  and  _215
REMARK   88  A    between atoms: _214  and  _217
REMARK   89  A    between atoms: _217  and  _218
REMARK   90  A    between atoms: _221  and  _223
REMARK   91  A    between atoms: _223  and  _224
REMARK   92  A    between atoms: _226  and  _228
REMARK   93  A    between atoms: _228  and  _229
REMARK   94  A    between atoms: _228  and  _231
REMARK   95  A    between atoms: _231  and  _232
REMARK   96  A    between atoms: _232  and  _233
REMARK   97  A    between atoms: _233  and  _234
REMARK   98  A    between atoms: _243  and  _245
REMARK   99  A    between atoms: _245  and  _246
REMARK  100  A    between atoms: _245  and  _248
REMARK  101  A    between atoms: _248  and  _249
REMARK  102  A    between atoms: _254  and  _256
REMARK  103  A    between atoms: _256  and  _257
REMARK  104  A    between atoms: _256  and  _259
REMARK  105  A    between atoms: _259  and  _260
REMARK  106  A    between atoms: _260  and  _261
REMARK  107  A    between atoms: _261  and  _262
REMARK  108  A    between atoms: _271  and  _273
REMARK  109  A    between atoms: _273  and  _274
REMARK  110  A    between atoms: _273  and  _276
REMARK  111  A    between atoms: _276  and  _277
REMARK  112  A    between atoms: _280  and  _282
REMARK  113  A    between atoms: _282  and  _283
REMARK  114  A    between atoms: _282  and  _285
REMARK  115  A    between atoms: _285  and  _286
REMARK  116  A    between atoms: _289  and  _291
REMARK  117  A    between atoms: _291  and  _292
REMARK  118  A    between atoms: _291  and  _294
REMARK  119  A    between atoms: _294  and  _295
REMARK  120  A    between atoms: _298  and  _300
REMARK  121  A    between atoms: _300  and  _301
REMARK  122  A    between atoms: _300  and  _303
REMARK  123  A    between atoms: _303  and  _304
REMARK  124  A    between atoms: _307  and  _309
REMARK  125  A    between atoms: _309  and  _310
REMARK  126  A    between atoms: _312  and  _314
REMARK  127  A    between atoms: _314  and  _315
REMARK  128  A    between atoms: _318  and  _320
REMARK  129  A    between atoms: _320  and  _321
REMARK  130  A    between atoms: _320  and  _323
REMARK  131  A    between atoms: _323  and  _324
REMARK  132  A    between atoms: _327  and  _329
REMARK  133  A    between atoms: _329  and  _330
REMARK  134  A    between atoms: _329  and  _332
REMARK  135  A    between atoms: _332  and  _333
REMARK  136  A    between atoms: _336  and  _338
REMARK  137  A    between atoms: _338  and  _339
REMARK  138  A    between atoms: _338  and  _341
REMARK  139  A    between atoms: _341  and  _342
REMARK  140  A    between atoms: _345  and  _347
REMARK  141  A    between atoms: _347  and  _348
REMARK  142  A    between atoms: _347  and  _350
REMARK  143  A    between atoms: _353  and  _355
REMARK  144  A    between atoms: _355  and  _356
REMARK  145  A    between atoms: _355  and  _358
REMARK  146  A    between atoms: _358  and  _359
REMARK  147  A    between atoms: _359  and  _360
REMARK  148  A    between atoms: _360  and  _361
REMARK  149  A    between atoms: _361  and  _362
REMARK  150  A    between atoms: _366  and  _368
REMARK  151  A    between atoms: _368  and  _369
REMARK  152  A    between atoms: _368  and  _371
REMARK  153  A    between atoms: _371  and  _372
REMARK  154  A    between atoms: _372  and  _373
REMARK  155  A    between atoms: _375  and  _377
REMARK  156  A    between atoms: _377  and  _378
REMARK  157  A    between atoms: _377  and  _380
REMARK  158  A    between atoms: _380  and  _381
REMARK  159  A    between atoms: _384  and  _386
REMARK  160  A    between atoms: _386  and  _387
REMARK  161  A    between atoms: _389  and  _391
REMARK  162  A    between atoms: _391  and  _392
REMARK  163  A    between atoms: _394  and  _396
REMARK  164  A    between atoms: _396  and  _397
REMARK  165  A    between atoms: _396  and  _399
REMARK  166  A    between atoms: _399  and  _400
REMARK  167  A    between atoms: _403  and  _405
REMARK  168  A    between atoms: _405  and  _406
REMARK  169  A    between atoms: _408  and  _410
REMARK  170  A    between atoms: _410  and  _411
REMARK  171  A    between atoms: _413  and  _415
REMARK  172  A    between atoms: _415  and  _416
REMARK  173  A    between atoms: _415  and  _418
REMARK  174  A    between atoms: _418  and  _419
REMARK  175  A    between atoms: _425  and  _427
REMARK  176  A    between atoms: _427  and  _428
REMARK  177  A    between atoms: _427  and  _430
REMARK  178  A    between atoms: _430  and  _431
REMARK  179  A    between atoms: _434  and  _436
REMARK  180  A    between atoms: _436  and  _437
REMARK  181  A    between atoms: _436  and  _439
REMARK  182  A    between atoms: _442  and  _444
REMARK  183  A    between atoms: _444  and  _445
REMARK  184  A    between atoms: _444  and  _447
REMARK  185  A    between atoms: _447  and  _448
REMARK  186  A    between atoms: _451  and  _453
REMARK  187  A    between atoms: _453  and  _454
REMARK  188  A    between atoms: _453  and  _456
REMARK  189  A    between atoms: _456  and  _457
REMARK  190  A    between atoms: _461  and  _462
REMARK  191  A    between atoms: _467  and  _469
REMARK  192  A    between atoms: _469  and  _470
REMARK  193  A    between atoms: _469  and  _472
REMARK  194  A    between atoms: _475  and  _477
REMARK  195  A    between atoms: _477  and  _478
REMARK  196  A    between atoms: _477  and  _480
REMARK  197  A    between atoms: _480  and  _481
REMARK  198  A    between atoms: _486  and  _488
REMARK  199  A    between atoms: _488  and  _489
REMARK  200  A    between atoms: _488  and  _491
REMARK  201  A    between atoms: _491  and  _492
REMARK  202  A    between atoms: _495  and  _497
REMARK  203  A    between atoms: _497  and  _498
REMARK  204  A    between atoms: _497  and  _500
REMARK  205  A    between atoms: _500  and  _501
REMARK  206  A    between atoms: _504  and  _506
REMARK  207  A    between atoms: _506  and  _507
REMARK  208  A    between atoms: _509  and  _511
REMARK  209  A    between atoms: _511  and  _512
REMARK  210  A    between atoms: _511  and  _514
REMARK  211  A    between atoms: _514  and  _515
REMARK  212  A    between atoms: _515  and  _516
REMARK  213  A    between atoms: _516  and  _517
REMARK  214  A    between atoms: _526  and  _528
REMARK  215  A    between atoms: _528  and  _529
REMARK  216  A    between atoms: _528  and  _531
REMARK  217  A    between atoms: _531  and  _532
REMARK                            x       y       z     vdW  Elec       q    Type
REMARK                         _______ _______ _______ _____ _____    ______ ____
ROOT
ATOM      1  O   HOH     1       2.201   3.779   6.128  0.00  0.00    +0.000 OA
ENDROOT
TORSDOF 0
REMARK  Name = ../refined-set-2016/1z1h/1z1h_pocket.pdb
REMARK  217 active torsions:
REMARK  status: ('A' for Active; 'I' for Inactive)
REMARK    1  A    between atoms: _1  and  _3
REMARK    2  A    between atoms: _3  and  _4
REMARK    3  A    between atoms: _3  and  _6
REMARK    4  A    between atoms: _6  and  _7
REMARK    5  A    between atoms: _7  and  _8
REMARK    6  A    between atoms: _8  and  _9
REMARK    7  A    between atoms: _18  and  _20
REMARK    8  A    between atoms: _20  and  _21
REMARK    9  A    between atoms: _20  and  _23
REMARK   10  A    between atoms: _23  and  _24
REMARK   11  A    between atoms: _27  and  _29
REMARK   12  A    between atoms: _29  and  _30
REMARK   13  A    between atoms: _29  and  _32
REMARK   14  A    between atoms: _32  and  _33
REMARK   15  A    between atoms: _36  and  _38
REMARK   16  A    between atoms: _38  and  _39
REMARK   17  A    between atoms: _38  and  _41
REMARK   18  A    between atoms: _41  and  _42
REMARK   19  A    between atoms: _45  and  _47
REMARK   20  A    between atoms: _47  and  _48
REMARK   21  A    between atoms: _47  and  _50
REMARK   22  A    between atoms: _50  and  _51
REMARK   23  A    between atoms: _54  and  _56
REMARK   24  A    between atoms: _56  and  _57
REMARK   25  A    between atoms: _59  and  _61
REMARK   26  A    between atoms: _61  and  _62
REMARK   27  A    between atoms: _65  and  _67
REMARK   28  A    between atoms: _67  and  _68
REMARK   29  A    between atoms: _67  and  _70
REMARK   30  A    between atoms: _70  and  _71
REMARK   31  A    between atoms: _74  and  _76
REMARK   32  A    between atoms: _76  and  _77
REMARK   33  A    between atoms: _76  and  _79
REMARK   34  A    between atoms: _79  and  _80
REMARK   35  A    between atoms: _83  and  _85
REMARK   36  A    between atoms: _85  and  _86
REMARK   37  A    between atoms: _85  and  _88
REMARK   38  A    between atoms: _88  and  _89
REMARK   39  A    between atoms: _92  and  _94
REMARK   40  A    between atoms: _94  and  _95
REMARK   41  A    between atoms: _94  and  _97
REMARK   42  A    between atoms: _100  and  _102
REMARK   43  A    between atoms: _102  and  _103
REMARK   44  A    between atoms: _102  and  _105
REMARK   45  A    between atoms: _105  and  _106
REMARK   46  A    between atoms: _109  and  _111
REMARK   47  A    between atoms: _111  and  _112
REMARK   48  A    between atoms: _114  and  _116
REMARK   49  A    between atoms: _116  and  _117
REMARK   50  A    between atoms: _119  and  _121
REMARK   51  A    between atoms: _121  and  _122
REMARK   52  A    between atoms: _121  and  _124
REMARK   53  A    between atoms: _124  and  _125
REMARK   54  A    between atoms: _128  and  _130
REMARK   55  A    between atoms: _130  and  _131
REMARK   56  A    between atoms: _133  and  _135
REMARK   57  A    between atoms: _135  and  _136
REMARK   58  A    between atoms: _138  and  _140
REMARK   59  A    between atoms: _140  and  _141
REMARK   60  A    between atoms: _140  and  _143
REMARK   61  A    between atoms: _143  and  _144
REMARK   62  A    between atoms: _150  and  _152
REMARK   63  A    between atoms: _152  and  _153
REMARK   64  A    between atoms: _152  and  _155
REMARK   65  A    between atoms: _155  and  _156
REMARK   66  A    between atoms: _159  and  _161
REMARK   67  A    between atoms: _161  and  _162
REMARK   68  A    between atoms: _161  and  _164
REMARK   69  A    between atoms: _164  and  _165
REMARK   70  A    between atoms: _168  and  _170
REMARK   71  A    between atoms: _170  and  _171
REMARK   72  A    between atoms: _170  and  _173
REMARK   73  A    between atoms: _173  and  _174
REMARK   74  A    between atoms: _178  and  _179
REMARK   75  A    between atoms: _184  and  _186
REMARK   76  A    between atoms: _186  and  _187
REMARK   77  A    between atoms: _186  and  _189
REMARK   78  A    between atoms: _192  and  _194
REMARK   79  A    between atoms: _194  and  _195
REMARK   80  A    between atoms: _194  and  _197
REMARK   81  A    between atoms: _197  and  _198
REMARK   82  A    between atoms: _203  and  _205
REMARK   83  A    between atoms: _205  and  _206
REMARK   84  A    between atoms: _205  and  _208
REMARK   85  A    between atoms: _208  and  _209
REMARK   86  A    between atoms: _212  and  _214
REMARK   87  A    between atoms: _214  and  _215
REMARK   88  A    between atoms: _214  and  _217
REMARK   89  A    between atoms: _217  and  _218
REMARK   90  A    between atoms: _221  and  _223
REMARK   91  A    between atoms: _223  and  _224
REMARK   92  A    between atoms: _226  and  _228
REMARK   93  A    between atoms: _228  and  _229
REMARK   94  A    between atoms: _228  and  _231
REMARK   95  A    between atoms: _231  and  _232
REMARK   96  A    between atoms: _232  and  _233
REMARK   97  A    between atoms: _233  and  _234
REMARK   98  A    between atoms: _243  and  _245
REMARK   99  A    between atoms: _245  and  _246
REMARK  100  A    between atoms: _245  and  _248
REMARK  101  A    between atoms: _248  and  _249
REMARK  102  A    between atoms: _254  and  _256
REMARK  103  A    between atoms: _256  and  _257
REMARK  104  A    between atoms: _256  and  _259
REMARK  105  A    between atoms: _259  and  _260
REMARK  106  A    between atoms: _260  and  _261
REMARK  107  A    between atoms: _261  and  _262
REMARK  108  A    between atoms: _271  and  _273
REMARK  109  A    between atoms: _273  and  _274
REMARK  110  A    between atoms: _273  and  _276
REMARK  111  A    between atoms: _276  and  _277
REMARK  112  A    between atoms: _280  and  _282
REMARK  113  A    between atoms: _282  and  _283
REMARK  114  A    between atoms: _282  and  _285
REMARK  115  A    between atoms: _285  and  _286
REMARK  116  A    between atoms: _289  and  _291
REMARK  117  A    between atoms: _291  and  _292
REMARK  118  A    between atoms: _291  and  _294
REMARK  119  A    between atoms: _294  and  _295
REMARK  120  A    between atoms: _298  and  _300
REMARK  121  A    between atoms: _300  and  _301
REMARK  122  A    between atoms: _300  and  _303
REMARK  123  A    between atoms: _303  and  _304
REMARK  124  A    between atoms: _307  and  _309
REMARK  125  A    between atoms: _309  and  _310
REMARK  126  A    between atoms: _312  and  _314
REMARK  127  A    between atoms: _314  and  _315
REMARK  128  A    between atoms: _318  and  _320
REMARK  129  A    between atoms: _320  and  _321
REMARK  130  A    between atoms: _320  and  _323
REMARK  131  A    between atoms: _323  and  _324
REMARK  132  A    between atoms: _327  and  _329
REMARK  133  A    between atoms: _329  and  _330
REMARK  134  A    between atoms: _329  and  _332
REMARK  135  A    between atoms: _332  and  _333
REMARK  136  A    between atoms: _336  and  _338
REMARK  137  A    between atoms: _338  and  _339
REMARK  138  A    between atoms: _338  and  _341
REMARK  139  A    between atoms: _341  and  _342
REMARK  140  A    between atoms: _345  and  _347
REMARK  141  A    between atoms: _347  and  _348
REMARK  142  A    between atoms: _347  and  _350
REMARK  143  A    between atoms: _353  and  _355
REMARK  144  A    between atoms: _355  and  _356
REMARK  145  A    between atoms: _355  and  _358
REMARK  146  A    between atoms: _358  and  _359
REMARK  147  A    between atoms: _359  and  _360
REMARK  148  A    between atoms: _360  and  _361
REMARK  149  A    between atoms: _361  and  _362
REMARK  150  A    between atoms: _366  and  _368
REMARK  151  A    between atoms: _368  and  _369
REMARK  152  A    between atoms: _368  and  _371
REMARK  153  A    between atoms: _371  and  _372
REMARK  154  A    between atoms: _372  and  _373
REMARK  155  A    between atoms: _375  and  _377
REMARK  156  A    between atoms: _377  and  _378
REMARK  157  A    between atoms: _377  and  _380
REMARK  158  A    between atoms: _380  and  _381
REMARK  159  A    between atoms: _384  and  _386
REMARK  160  A    between atoms: _386  and  _387
REMARK  161  A    between atoms: _389  and  _391
REMARK  162  A    between atoms: _391  and  _392
REMARK  163  A    between atoms: _394  and  _396
REMARK  164  A    between atoms: _396  and  _397
REMARK  165  A    between atoms: _396  and  _399
REMARK  166  A    between atoms: _399  and  _400
REMARK  167  A    between atoms: _403  and  _405
REMARK  168  A    between atoms: _405  and  _406
REMARK  169  A    between atoms: _408  and  _410
REMARK  170  A    between atoms: _410  and  _411
REMARK  171  A    between atoms: _413  and  _415
REMARK  172  A    between atoms: _415  and  _416
REMARK  173  A    between atoms: _415  and  _418
REMARK  174  A    between atoms: _418  and  _419
REMARK  175  A    between atoms: _425  and  _427
REMARK  176  A    between atoms: _427  and  _428
REMARK  177  A    between atoms: _427  and  _430
REMARK  178  A    between atoms: _430  and  _431
REMARK  179  A    between atoms: _434  and  _436
REMARK  180  A    between atoms: _436  and  _437
REMARK  181  A    between atoms: _436  and  _439
REMARK  182  A    between atoms: _442  and  _444
REMARK  183  A    between atoms: _444  and  _445
REMARK  184  A    between atoms: _444  and  _447
REMARK  185  A    between atoms: _447  and  _448
REMARK  186  A    between atoms: _451  and  _453
REMARK  187  A    between atoms: _453  and  _454
REMARK  188  A    between atoms: _453  and  _456
REMARK  189  A    between atoms: _456  and  _457
REMARK  190  A    between atoms: _461  and  _462
REMARK  191  A    between atoms: _467  and  _469
REMARK  192  A    between atoms: _469  and  _470
REMARK  193  A    between atoms: _469  and  _472
REMARK  194  A    between atoms: _475  and  _477
REMARK  195  A    between atoms: _477  and  _478
REMARK  196  A    between atoms: _477  and  _480
REMARK  197  A    between atoms: _480  and  _481
REMARK  198  A    between atoms: _486  and  _488
REMARK  199  A    between atoms: _488  and  _489
REMARK  200  A    between atoms: _488  and  _491
REMARK  201  A    between atoms: _491  and  _492
REMARK  202  A    between atoms: _495  and  _497
REMARK  203  A    between atoms: _497  and  _498
REMARK  204  A    between atoms: _497  and  _500
REMARK  205  A    between atoms: _500  and  _501
REMARK  206  A    between atoms: _504  and  _506
REMARK  207  A    between atoms: _506  and  _507
REMARK  208  A    between atoms: _509  and  _511
REMARK  209  A    between atoms: _511  and  _512
REMARK  210  A    between atoms: _511  and  _514
REMARK  211  A    between atoms: _514  and  _515
REMARK  212  A    between atoms: _515  and  _516
REMARK  213  A    between atoms: _516  and  _517
REMARK  214  A    between atoms: _526  and  _528
REMARK  215  A    between atoms: _528  and  _529
REMARK  216  A    between atoms: _528  and  _531
REMARK  217  A    between atoms: _531  and  _532
REMARK                            x       y       z     vdW  Elec       q    Type
REMARK                         _______ _______ _______ _____ _____    ______ ____
ROOT
ATOM      1  O   HOH     1       5.103   7.490  15.594  0.00  0.00    +0.000 OA
ENDROOT
TORSDOF 0
REMARK  Name = ../refined-set-2016/1z1h/1z1h_pocket.pdb
REMARK  217 active torsions:
REMARK  status: ('A' for Active; 'I' for Inactive)
REMARK    1  A    between atoms: _1  and  _3
REMARK    2  A    between atoms: _3  and  _4
REMARK    3  A    between atoms: _3  and  _6
REMARK    4  A    between atoms: _6  and  _7
REMARK    5  A    between atoms: _7  and  _8
REMARK    6  A    between atoms: _8  and  _9
REMARK    7  A    between atoms: _18  and  _20
REMARK    8  A    between atoms: _20  and  _21
REMARK    9  A    between atoms: _20  and  _23
REMARK   10  A    between atoms: _23  and  _24
REMARK   11  A    between atoms: _27  and  _29
REMARK   12  A    between atoms: _29  and  _30
REMARK   13  A    between atoms: _29  and  _32
REMARK   14  A    between atoms: _32  and  _33
REMARK   15  A    between atoms: _36  and  _38
REMARK   16  A    between atoms: _38  and  _39
REMARK   17  A    between atoms: _38  and  _41
REMARK   18  A    between atoms: _41  and  _42
REMARK   19  A    between atoms: _45  and  _47
REMARK   20  A    between atoms: _47  and  _48
REMARK   21  A    between atoms: _47  and  _50
REMARK   22  A    between atoms: _50  and  _51
REMARK   23  A    between atoms: _54  and  _56
REMARK   24  A    between atoms: _56  and  _57
REMARK   25  A    between atoms: _59  and  _61
REMARK   26  A    between atoms: _61  and  _62
REMARK   27  A    between atoms: _65  and  _67
REMARK   28  A    between atoms: _67  and  _68
REMARK   29  A    between atoms: _67  and  _70
REMARK   30  A    between atoms: _70  and  _71
REMARK   31  A    between atoms: _74  and  _76
REMARK   32  A    between atoms: _76  and  _77
REMARK   33  A    between atoms: _76  and  _79
REMARK   34  A    between atoms: _79  and  _80
REMARK   35  A    between atoms: _83  and  _85
REMARK   36  A    between atoms: _85  and  _86
REMARK   37  A    between atoms: _85  and  _88
REMARK   38  A    between atoms: _88  and  _89
REMARK   39  A    between atoms: _92  and  _94
REMARK   40  A    between atoms: _94  and  _95
REMARK   41  A    between atoms: _94  and  _97
REMARK   42  A    between atoms: _100  and  _102
REMARK   43  A    between atoms: _102  and  _103
REMARK   44  A    between atoms: _102  and  _105
REMARK   45  A    between atoms: _105  and  _106
REMARK   46  A    between atoms: _109  and  _111
REMARK   47  A    between atoms: _111  and  _112
REMARK   48  A    between atoms: _114  and  _116
REMARK   49  A    between atoms: _116  and  _117
REMARK   50  A    between atoms: _119  and  _121
REMARK   51  A    between atoms: _121  and  _122
REMARK   52  A    between atoms: _121  and  _124
REMARK   53  A    between atoms: _124  and  _125
REMARK   54  A    between atoms: _128  and  _130
REMARK   55  A    between atoms: _130  and  _131
REMARK   56  A    between atoms: _133  and  _135
REMARK   57  A    between atoms: _135  and  _136
REMARK   58  A    between atoms: _138  and  _140
REMARK   59  A    between atoms: _140  and  _141
REMARK   60  A    between atoms: _140  and  _143
REMARK   61  A    between atoms: _143  and  _144
REMARK   62  A    between atoms: _150  and  _152
REMARK   63  A    between atoms: _152  and  _153
REMARK   64  A    between atoms: _152  and  _155
REMARK   65  A    between atoms: _155  and  _156
REMARK   66  A    between atoms: _159  and  _161
REMARK   67  A    between atoms: _161  and  _162
REMARK   68  A    between atoms: _161  and  _164
REMARK   69  A    between atoms: _164  and  _165
REMARK   70  A    between atoms: _168  and  _170
REMARK   71  A    between atoms: _170  and  _171
REMARK   72  A    between atoms: _170  and  _173
REMARK   73  A    between atoms: _173  and  _174
REMARK   74  A    between atoms: _178  and  _179
REMARK   75  A    between atoms: _184  and  _186
REMARK   76  A    between atoms: _186  and  _187
REMARK   77  A    between atoms: _186  and  _189
REMARK   78  A    between atoms: _192  and  _194
REMARK   79  A    between atoms: _194  and  _195
REMARK   80  A    between atoms: _194  and  _197
REMARK   81  A    between atoms: _197  and  _198
REMARK   82  A    between atoms: _203  and  _205
REMARK   83  A    between atoms: _205  and  _206
REMARK   84  A    between atoms: _205  and  _208
REMARK   85  A    between atoms: _208  and  _209
REMARK   86  A    between atoms: _212  and  _214
REMARK   87  A    between atoms: _214  and  _215
REMARK   88  A    between atoms: _214  and  _217
REMARK   89  A    between atoms: _217  and  _218
REMARK   90  A    between atoms: _221  and  _223
REMARK   91  A    between atoms: _223  and  _224
REMARK   92  A    between atoms: _226  and  _228
REMARK   93  A    between atoms: _228  and  _229
REMARK   94  A    between atoms: _228  and  _231
REMARK   95  A    between atoms: _231  and  _232
REMARK   96  A    between atoms: _232  and  _233
REMARK   97  A    between atoms: _233  and  _234
REMARK   98  A    between atoms: _243  and  _245
REMARK   99  A    between atoms: _245  and  _246
REMARK  100  A    between atoms: _245  and  _248
REMARK  101  A    between atoms: _248  and  _249
REMARK  102  A    between atoms: _254  and  _256
REMARK  103  A    between atoms: _256  and  _257
REMARK  104  A    between atoms: _256  and  _259
REMARK  105  A    between atoms: _259  and  _260
REMARK  106  A    between atoms: _260  and  _261
REMARK  107  A    between atoms: _261  and  _262
REMARK  108  A    between atoms: _271  and  _273
REMARK  109  A    between atoms: _273  and  _274
REMARK  110  A    between atoms: _273  and  _276
REMARK  111  A    between atoms: _276  and  _277
REMARK  112  A    between atoms: _280  and  _282
REMARK  113  A    between atoms: _282  and  _283
REMARK  114  A    between atoms: _282  and  _285
REMARK  115  A    between atoms: _285  and  _286
REMARK  116  A    between atoms: _289  and  _291
REMARK  117  A    between atoms: _291  and  _292
REMARK  118  A    between atoms: _291  and  _294
REMARK  119  A    between atoms: _294  and  _295
REMARK  120  A    between atoms: _298  and  _300
REMARK  121  A    between atoms: _300  and  _301
REMARK  122  A    between atoms: _300  and  _303
REMARK  123  A    between atoms: _303  and  _304
REMARK  124  A    between atoms: _307  and  _309
REMARK  125  A    between atoms: _309  and  _310
REMARK  126  A    between atoms: _312  and  _314
REMARK  127  A    between atoms: _314  and  _315
REMARK  128  A    between atoms: _318  and  _320
REMARK  129  A    between atoms: _320  and  _321
REMARK  130  A    between atoms: _320  and  _323
REMARK  131  A    between atoms: _323  and  _324
REMARK  132  A    between atoms: _327  and  _329
REMARK  133  A    between atoms: _329  and  _330
REMARK  134  A    between atoms: _329  and  _332
REMARK  135  A    between atoms: _332  and  _333
REMARK  136  A    between atoms: _336  and  _338
REMARK  137  A    between atoms: _338  and  _339
REMARK  138  A    between atoms: _338  and  _341
REMARK  139  A    between atoms: _341  and  _342
REMARK  140  A    between atoms: _345  and  _347
REMARK  141  A    between atoms: _347  and  _348
REMARK  142  A    between atoms: _347  and  _350
REMARK  143  A    between atoms: _353  and  _355
REMARK  144  A    between atoms: _355  and  _356
REMARK  145  A    between atoms: _355  and  _358
REMARK  146  A    between atoms: _358  and  _359
REMARK  147  A    between atoms: _359  and  _360
REMARK  148  A    between atoms: _360  and  _361
REMARK  149  A    between atoms: _361  and  _362
REMARK  150  A    between atoms: _366  and  _368
REMARK  151  A    between atoms: _368  and  _369
REMARK  152  A    between atoms: _368  and  _371
REMARK  153  A    between atoms: _371  and  _372
REMARK  154  A    between atoms: _372  and  _373
REMARK  155  A    between atoms: _375  and  _377
REMARK  156  A    between atoms: _377  and  _378
REMARK  157  A    between atoms: _377  and  _380
REMARK  158  A    between atoms: _380  and  _381
REMARK  159  A    between atoms: _384  and  _386
REMARK  160  A    between atoms: _386  and  _387
REMARK  161  A    between atoms: _389  and  _391
REMARK  162  A    between atoms: _391  and  _392
REMARK  163  A    between atoms: _394  and  _396
REMARK  164  A    between atoms: _396  and  _397
REMARK  165  A    between atoms: _396  and  _399
REMARK  166  A    between atoms: _399  and  _400
REMARK  167  A    between atoms: _403  and  _405
REMARK  168  A    between atoms: _405  and  _406
REMARK  169  A    between atoms: _408  and  _410
REMARK  170  A    between atoms: _410  and  _411
REMARK  171  A    between atoms: _413  and  _415
REMARK  172  A    between atoms: _415  and  _416
REMARK  173  A    between atoms: _415  and  _418
REMARK  174  A    between atoms: _418  and  _419
REMARK  175  A    between atoms: _425  and  _427
REMARK  176  A    between atoms: _427  and  _428
REMARK  177  A    between atoms: _427  and  _430
REMARK  178  A    between atoms: _430  and  _431
REMARK  179  A    between atoms: _434  and  _436
REMARK  180  A    between atoms: _436  and  _437
REMARK  181  A    between atoms: _436  and  _439
REMARK  182  A    between atoms: _442  and  _444
REMARK  183  A    between atoms: _444  and  _445
REMARK  184  A    between atoms: _444  and  _447
REMARK  185  A    between atoms: _447  and  _448
REMARK  186  A    between atoms: _451  and  _453
REMARK  187  A    between atoms: _453  and  _454
REMARK  188  A    between atoms: _453  and  _456
REMARK  189  A    between atoms: _456  and  _457
REMARK  190  A    between atoms: _461  and  _462
REMARK  191  A    between atoms: _467  and  _469
REMARK  192  A    between atoms: _469  and  _470
REMARK  193  A    between atoms: _469  and  _472
REMARK  194  A    between atoms: _475  and  _477
REMARK  195  A    between atoms: _477  and  _478
REMARK  196  A    between atoms: _477  and  _480
REMARK  197  A    between atoms: _480  and  _481
REMARK  198  A    between atoms: _486  and  _488
REMARK  199  A    between atoms: _488  and  _489
REMARK  200  A    between atoms: _488  and  _491
REMARK  201  A    between atoms: _491  and  _492
REMARK  202  A    between atoms: _495  and  _497
REMARK  203  A    between atoms: _497  and  _498
REMARK  204  A    between atoms: _497  and  _500
REMARK  205  A    between atoms: _500  and  _501
REMARK  206  A    between atoms: _504  and  _506
REMARK  207  A    between atoms: _506  and  _507
REMARK  208  A    between atoms: _509  and  _511
REMARK  209  A    between atoms: _511  and  _512
REMARK  210  A    between atoms: _511  and  _514
REMARK  211  A    between atoms: _514  and  _515
REMARK  212  A    between atoms: _515  and  _516
REMARK  213  A    between atoms: _516  and  _517
REMARK  214  A    between atoms: _526  and  _528
REMARK  215  A    between atoms: _528  and  _529
REMARK  216  A    between atoms: _528  and  _531
REMARK  217  A    between atoms: _531  and  _532
REMARK                            x       y       z     vdW  Elec       q    Type
REMARK                         _______ _______ _______ _____ _____    ______ ____
ROOT
ATOM      1  O   HOH     1       5.533   5.988  13.357  0.00  0.00    +0.000 OA
ENDROOT
TORSDOF 0
REMARK  Name = ../refined-set-2016/1z1h/1z1h_pocket.pdb
REMARK  217 active torsions:
REMARK  status: ('A' for Active; 'I' for Inactive)
REMARK    1  A    between atoms: _1  and  _3
REMARK    2  A    between atoms: _3  and  _4
REMARK    3  A    between atoms: _3  and  _6
REMARK    4  A    between atoms: _6  and  _7
REMARK    5  A    between atoms: _7  and  _8
REMARK    6  A    between atoms: _8  and  _9
REMARK    7  A    between atoms: _18  and  _20
REMARK    8  A    between atoms: _20  and  _21
REMARK    9  A    between atoms: _20  and  _23
REMARK   10  A    between atoms: _23  and  _24
REMARK   11  A    between atoms: _27  and  _29
REMARK   12  A    between atoms: _29  and  _30
REMARK   13  A    between atoms: _29  and  _32
REMARK   14  A    between atoms: _32  and  _33
REMARK   15  A    between atoms: _36  and  _38
REMARK   16  A    between atoms: _38  and  _39
REMARK   17  A    between atoms: _38  and  _41
REMARK   18  A    between atoms: _41  and  _42
REMARK   19  A    between atoms: _45  and  _47
REMARK   20  A    between atoms: _47  and  _48
REMARK   21  A    between atoms: _47  and  _50
REMARK   22  A    between atoms: _50  and  _51
REMARK   23  A    between atoms: _54  and  _56
REMARK   24  A    between atoms: _56  and  _57
REMARK   25  A    between atoms: _59  and  _61
REMARK   26  A    between atoms: _61  and  _62
REMARK   27  A    between atoms: _65  and  _67
REMARK   28  A    between atoms: _67  and  _68
REMARK   29  A    between atoms: _67  and  _70
REMARK   30  A    between atoms: _70  and  _71
REMARK   31  A    between atoms: _74  and  _76
REMARK   32  A    between atoms: _76  and  _77
REMARK   33  A    between atoms: _76  and  _79
REMARK   34  A    between atoms: _79  and  _80
REMARK   35  A    between atoms: _83  and  _85
REMARK   36  A    between atoms: _85  and  _86
REMARK   37  A    between atoms: _85  and  _88
REMARK   38  A    between atoms: _88  and  _89
REMARK   39  A    between atoms: _92  and  _94
REMARK   40  A    between atoms: _94  and  _95
REMARK   41  A    between atoms: _94  and  _97
REMARK   42  A    between atoms: _100  and  _102
REMARK   43  A    between atoms: _102  and  _103
REMARK   44  A    between atoms: _102  and  _105
REMARK   45  A    between atoms: _105  and  _106
REMARK   46  A    between atoms: _109  and  _111
REMARK   47  A    between atoms: _111  and  _112
REMARK   48  A    between atoms: _114  and  _116
REMARK   49  A    between atoms: _116  and  _117
REMARK   50  A    between atoms: _119  and  _121
REMARK   51  A    between atoms: _121  and  _122
REMARK   52  A    between atoms: _121  and  _124
REMARK   53  A    between atoms: _124  and  _125
REMARK   54  A    between atoms: _128  and  _130
REMARK   55  A    between atoms: _130  and  _131
REMARK   56  A    between atoms: _133  and  _135
REMARK   57  A    between atoms: _135  and  _136
REMARK   58  A    between atoms: _138  and  _140
REMARK   59  A    between atoms: _140  and  _141
REMARK   60  A    between atoms: _140  and  _143
REMARK   61  A    between atoms: _143  and  _144
REMARK   62  A    between atoms: _150  and  _152
REMARK   63  A    between atoms: _152  and  _153
REMARK   64  A    between atoms: _152  and  _155
REMARK   65  A    between atoms: _155  and  _156
REMARK   66  A    between atoms: _159  and  _161
REMARK   67  A    between atoms: _161  and  _162
REMARK   68  A    between atoms: _161  and  _164
REMARK   69  A    between atoms: _164  and  _165
REMARK   70  A    between atoms: _168  and  _170
REMARK   71  A    between atoms: _170  and  _171
REMARK   72  A    between atoms: _170  and  _173
REMARK   73  A    between atoms: _173  and  _174
REMARK   74  A    between atoms: _178  and  _179
REMARK   75  A    between atoms: _184  and  _186
REMARK   76  A    between atoms: _186  and  _187
REMARK   77  A    between atoms: _186  and  _189
REMARK   78  A    between atoms: _192  and  _194
REMARK   79  A    between atoms: _194  and  _195
REMARK   80  A    between atoms: _194  and  _197
REMARK   81  A    between atoms: _197  and  _198
REMARK   82  A    between atoms: _203  and  _205
REMARK   83  A    between atoms: _205  and  _206
REMARK   84  A    between atoms: _205  and  _208
REMARK   85  A    between atoms: _208  and  _209
REMARK   86  A    between atoms: _212  and  _214
REMARK   87  A    between atoms: _214  and  _215
REMARK   88  A    between atoms: _214  and  _217
REMARK   89  A    between atoms: _217  and  _218
REMARK   90  A    between atoms: _221  and  _223
REMARK   91  A    between atoms: _223  and  _224
REMARK   92  A    between atoms: _226  and  _228
REMARK   93  A    between atoms: _228  and  _229
REMARK   94  A    between atoms: _228  and  _231
REMARK   95  A    between atoms: _231  and  _232
REMARK   96  A    between atoms: _232  and  _233
REMARK   97  A    between atoms: _233  and  _234
REMARK   98  A    between atoms: _243  and  _245
REMARK   99  A    between atoms: _245  and  _246
REMARK  100  A    between atoms: _245  and  _248
REMARK  101  A    between atoms: _248  and  _249
REMARK  102  A    between atoms: _254  and  _256
REMARK  103  A    between atoms: _256  and  _257
REMARK  104  A    between atoms: _256  and  _259
REMARK  105  A    between atoms: _259  and  _260
REMARK  106  A    between atoms: _260  and  _261
REMARK  107  A    between atoms: _261  and  _262
REMARK  108  A    between atoms: _271  and  _273
REMARK  109  A    between atoms: _273  and  _274
REMARK  110  A    between atoms: _273  and  _276
REMARK  111  A    between atoms: _276  and  _277
REMARK  112  A    between atoms: _280  and  _282
REMARK  113  A    between atoms: _282  and  _283
REMARK  114  A    between atoms: _282  and  _285
REMARK  115  A    between atoms: _285  and  _286
REMARK  116  A    between atoms: _289  and  _291
REMARK  117  A    between atoms: _291  and  _292
REMARK  118  A    between atoms: _291  and  _294
REMARK  119  A    between atoms: _294  and  _295
REMARK  120  A    between atoms: _298  and  _300
REMARK  121  A    between atoms: _300  and  _301
REMARK  122  A    between atoms: _300  and  _303
REMARK  123  A    between atoms: _303  and  _304
REMARK  124  A    between atoms: _307  and  _309
REMARK  125  A    between atoms: _309  and  _310
REMARK  126  A    between atoms: _312  and  _314
REMARK  127  A    between atoms: _314  and  _315
REMARK  128  A    between atoms: _318  and  _320
REMARK  129  A    between atoms: _320  and  _321
REMARK  130  A    between atoms: _320  and  _323
REMARK  131  A    between atoms: _323  and  _324
REMARK  132  A    between atoms: _327  and  _329
REMARK  133  A    between atoms: _329  and  _330
REMARK  134  A    between atoms: _329  and  _332
REMARK  135  A    between atoms: _332  and  _333
REMARK  136  A    between atoms: _336  and  _338
REMARK  137  A    between atoms: _338  and  _339
REMARK  138  A    between atoms: _338  and  _341
REMARK  139  A    between atoms: _341  and  _342
REMARK  140  A    between atoms: _345  and  _347
REMARK  141  A    between atoms: _347  and  _348
REMARK  142  A    between atoms: _347  and  _350
REMARK  143  A    between atoms: _353  and  _355
REMARK  144  A    between atoms: _355  and  _356
REMARK  145  A    between atoms: _355  and  _358
REMARK  146  A    between atoms: _358  and  _359
REMARK  147  A    between atoms: _359  and  _360
REMARK  148  A    between atoms: _360  and  _361
REMARK  149  A    between atoms: _361  and  _362
REMARK  150  A    between atoms: _366  and  _368
REMARK  151  A    between atoms: _368  and  _369
REMARK  152  A    between atoms: _368  and  _371
REMARK  153  A    between atoms: _371  and  _372
REMARK  154  A    between atoms: _372  and  _373
REMARK  155  A    between atoms: _375  and  _377
REMARK  156  A    between atoms: _377  and  _378
REMARK  157  A    between atoms: _377  and  _380
REMARK  158  A    between atoms: _380  and  _381
REMARK  159  A    between atoms: _384  and  _386
REMARK  160  A    between atoms: _386  and  _387
REMARK  161  A    between atoms: _389  and  _391
REMARK  162  A    between atoms: _391  and  _392
REMARK  163  A    between atoms: _394  and  _396
REMARK  164  A    between atoms: _396  and  _397
REMARK  165  A    between atoms: _396  and  _399
REMARK  166  A    between atoms: _399  and  _400
REMARK  167  A    between atoms: _403  and  _405
REMARK  168  A    between atoms: _405  and  _406
REMARK  169  A    between atoms: _408  and  _410
REMARK  170  A    between atoms: _410  and  _411
REMARK  171  A    between atoms: _413  and  _415
REMARK  172  A    between atoms: _415  and  _416
REMARK  173  A    between atoms: _415  and  _418
REMARK  174  A    between atoms: _418  and  _419
REMARK  175  A    between atoms: _425  and  _427
REMARK  176  A    between atoms: _427  and  _428
REMARK  177  A    between atoms: _427  and  _430
REMARK  178  A    between atoms: _430  and  _431
REMARK  179  A    between atoms: _434  and  _436
REMARK  180  A    between atoms: _436  and  _437
REMARK  181  A    between atoms: _436  and  _439
REMARK  182  A    between atoms: _442  and  _444
REMARK  183  A    between atoms: _444  and  _445
REMARK  184  A    between atoms: _444  and  _447
REMARK  185  A    between atoms: _447  and  _448
REMARK  186  A    between atoms: _451  and  _453
REMARK  187  A    between atoms: _453  and  _454
REMARK  188  A    between atoms: _453  and  _456
REMARK  189  A    between atoms: _456  and  _457
REMARK  190  A    between atoms: _461  and  _462
REMARK  191  A    between atoms: _467  and  _469
REMARK  192  A    between atoms: _469  and  _470
REMARK  193  A    between atoms: _469  and  _472
REMARK  194  A    between atoms: _475  and  _477
REMARK  195  A    between atoms: _477  and  _478
REMARK  196  A    between atoms: _477  and  _480
REMARK  197  A    between atoms: _480  and  _481
REMARK  198  A    between atoms: _486  and  _488
REMARK  199  A    between atoms: _488  and  _489
REMARK  200  A    between atoms: _488  and  _491
REMARK  201  A    between atoms: _491  and  _492
REMARK  202  A    between atoms: _495  and  _497
REMARK  203  A    between atoms: _497  and  _498
REMARK  204  A    between atoms: _497  and  _500
REMARK  205  A    between atoms: _500  and  _501
REMARK  206  A    between atoms: _504  and  _506
REMARK  207  A    between atoms: _506  and  _507
REMARK  208  A    between atoms: _509  and  _511
REMARK  209  A    between atoms: _511  and  _512
REMARK  210  A    between atoms: _511  and  _514
REMARK  211  A    between atoms: _514  and  _515
REMARK  212  A    between atoms: _515  and  _516
REMARK  213  A    between atoms: _516  and  _517
REMARK  214  A    between atoms: _526  and  _528
REMARK  215  A    between atoms: _528  and  _529
REMARK  216  A    between atoms: _528  and  _531
REMARK  217  A    between atoms: _531  and  _532
REMARK                            x       y       z     vdW  Elec       q    Type
REMARK                         _______ _______ _______ _____ _____    ______ ____
ROOT
ATOM      1  O   HOH     1      11.039  -4.053   5.417  0.00  0.00    +0.000 OA
ENDROOT
TORSDOF 0
REMARK  Name = ../refined-set-2016/1z1h/1z1h_pocket.pdb
REMARK  217 active torsions:
REMARK  status: ('A' for Active; 'I' for Inactive)
REMARK    1  A    between atoms: _1  and  _3
REMARK    2  A    between atoms: _3  and  _4
REMARK    3  A    between atoms: _3  and  _6
REMARK    4  A    between atoms: _6  and  _7
REMARK    5  A    between atoms: _7  and  _8
REMARK    6  A    between atoms: _8  and  _9
REMARK    7  A    between atoms: _18  and  _20
REMARK    8  A    between atoms: _20  and  _21
REMARK    9  A    between atoms: _20  and  _23
REMARK   10  A    between atoms: _23  and  _24
REMARK   11  A    between atoms: _27  and  _29
REMARK   12  A    between atoms: _29  and  _30
REMARK   13  A    between atoms: _29  and  _32
REMARK   14  A    between atoms: _32  and  _33
REMARK   15  A    between atoms: _36  and  _38
REMARK   16  A    between atoms: _38  and  _39
REMARK   17  A    between atoms: _38  and  _41
REMARK   18  A    between atoms: _41  and  _42
REMARK   19  A    between atoms: _45  and  _47
REMARK   20  A    between atoms: _47  and  _48
REMARK   21  A    between atoms: _47  and  _50
REMARK   22  A    between atoms: _50  and  _51
REMARK   23  A    between atoms: _54  and  _56
REMARK   24  A    between atoms: _56  and  _57
REMARK   25  A    between atoms: _59  and  _61
REMARK   26  A    between atoms: _61  and  _62
REMARK   27  A    between atoms: _65  and  _67
REMARK   28  A    between atoms: _67  and  _68
REMARK   29  A    between atoms: _67  and  _70
REMARK   30  A    between atoms: _70  and  _71
REMARK   31  A    between atoms: _74  and  _76
REMARK   32  A    between atoms: _76  and  _77
REMARK   33  A    between atoms: _76  and  _79
REMARK   34  A    between atoms: _79  and  _80
REMARK   35  A    between atoms: _83  and  _85
REMARK   36  A    between atoms: _85  and  _86
REMARK   37  A    between atoms: _85  and  _88
REMARK   38  A    between atoms: _88  and  _89
REMARK   39  A    between atoms: _92  and  _94
REMARK   40  A    between atoms: _94  and  _95
REMARK   41  A    between atoms: _94  and  _97
REMARK   42  A    between atoms: _100  and  _102
REMARK   43  A    between atoms: _102  and  _103
REMARK   44  A    between atoms: _102  and  _105
REMARK   45  A    between atoms: _105  and  _106
REMARK   46  A    between atoms: _109  and  _111
REMARK   47  A    between atoms: _111  and  _112
REMARK   48  A    between atoms: _114  and  _116
REMARK   49  A    between atoms: _116  and  _117
REMARK   50  A    between atoms: _119  and  _121
REMARK   51  A    between atoms: _121  and  _122
REMARK   52  A    between atoms: _121  and  _124
REMARK   53  A    between atoms: _124  and  _125
REMARK   54  A    between atoms: _128  and  _130
REMARK   55  A    between atoms: _130  and  _131
REMARK   56  A    between atoms: _133  and  _135
REMARK   57  A    between atoms: _135  and  _136
REMARK   58  A    between atoms: _138  and  _140
REMARK   59  A    between atoms: _140  and  _141
REMARK   60  A    between atoms: _140  and  _143
REMARK   61  A    between atoms: _143  and  _144
REMARK   62  A    between atoms: _150  and  _152
REMARK   63  A    between atoms: _152  and  _153
REMARK   64  A    between atoms: _152  and  _155
REMARK   65  A    between atoms: _155  and  _156
REMARK   66  A    between atoms: _159  and  _161
REMARK   67  A    between atoms: _161  and  _162
REMARK   68  A    between atoms: _161  and  _164
REMARK   69  A    between atoms: _164  and  _165
REMARK   70  A    between atoms: _168  and  _170
REMARK   71  A    between atoms: _170  and  _171
REMARK   72  A    between atoms: _170  and  _173
REMARK   73  A    between atoms: _173  and  _174
REMARK   74  A    between atoms: _178  and  _179
REMARK   75  A    between atoms: _184  and  _186
REMARK   76  A    between atoms: _186  and  _187
REMARK   77  A    between atoms: _186  and  _189
REMARK   78  A    between atoms: _192  and  _194
REMARK   79  A    between atoms: _194  and  _195
REMARK   80  A    between atoms: _194  and  _197
REMARK   81  A    between atoms: _197  and  _198
REMARK   82  A    between atoms: _203  and  _205
REMARK   83  A    between atoms: _205  and  _206
REMARK   84  A    between atoms: _205  and  _208
REMARK   85  A    between atoms: _208  and  _209
REMARK   86  A    between atoms: _212  and  _214
REMARK   87  A    between atoms: _214  and  _215
REMARK   88  A    between atoms: _214  and  _217
REMARK   89  A    between atoms: _217  and  _218
REMARK   90  A    between atoms: _221  and  _223
REMARK   91  A    between atoms: _223  and  _224
REMARK   92  A    between atoms: _226  and  _228
REMARK   93  A    between atoms: _228  and  _229
REMARK   94  A    between atoms: _228  and  _231
REMARK   95  A    between atoms: _231  and  _232
REMARK   96  A    between atoms: _232  and  _233
REMARK   97  A    between atoms: _233  and  _234
REMARK   98  A    between atoms: _243  and  _245
REMARK   99  A    between atoms: _245  and  _246
REMARK  100  A    between atoms: _245  and  _248
REMARK  101  A    between atoms: _248  and  _249
REMARK  102  A    between atoms: _254  and  _256
REMARK  103  A    between atoms: _256  and  _257
REMARK  104  A    between atoms: _256  and  _259
REMARK  105  A    between atoms: _259  and  _260
REMARK  106  A    between atoms: _260  and  _261
REMARK  107  A    between atoms: _261  and  _262
REMARK  108  A    between atoms: _271  and  _273
REMARK  109  A    between atoms: _273  and  _274
REMARK  110  A    between atoms: _273  and  _276
REMARK  111  A    between atoms: _276  and  _277
REMARK  112  A    between atoms: _280  and  _282
REMARK  113  A    between atoms: _282  and  _283
REMARK  114  A    between atoms: _282  and  _285
REMARK  115  A    between atoms: _285  and  _286
REMARK  116  A    between atoms: _289  and  _291
REMARK  117  A    between atoms: _291  and  _292
REMARK  118  A    between atoms: _291  and  _294
REMARK  119  A    between atoms: _294  and  _295
REMARK  120  A    between atoms: _298  and  _300
REMARK  121  A    between atoms: _300  and  _301
REMARK  122  A    between atoms: _300  and  _303
REMARK  123  A    between atoms: _303  and  _304
REMARK  124  A    between atoms: _307  and  _309
REMARK  125  A    between atoms: _309  and  _310
REMARK  126  A    between atoms: _312  and  _314
REMARK  127  A    between atoms: _314  and  _315
REMARK  128  A    between atoms: _318  and  _320
REMARK  129  A    between atoms: _320  and  _321
REMARK  130  A    between atoms: _320  and  _323
REMARK  131  A    between atoms: _323  and  _324
REMARK  132  A    between atoms: _327  and  _329
REMARK  133  A    between atoms: _329  and  _330
REMARK  134  A    between atoms: _329  and  _332
REMARK  135  A    between atoms: _332  and  _333
REMARK  136  A    between atoms: _336  and  _338
REMARK  137  A    between atoms: _338  and  _339
REMARK  138  A    between atoms: _338  and  _341
REMARK  139  A    between atoms: _341  and  _342
REMARK  140  A    between atoms: _345  and  _347
REMARK  141  A    between atoms: _347  and  _348
REMARK  142  A    between atoms: _347  and  _350
REMARK  143  A    between atoms: _353  and  _355
REMARK  144  A    between atoms: _355  and  _356
REMARK  145  A    between atoms: _355  and  _358
REMARK  146  A    between atoms: _358  and  _359
REMARK  147  A    between atoms: _359  and  _360
REMARK  148  A    between atoms: _360  and  _361
REMARK  149  A    between atoms: _361  and  _362
REMARK  150  A    between atoms: _366  and  _368
REMARK  151  A    between atoms: _368  and  _369
REMARK  152  A    between atoms: _368  and  _371
REMARK  153  A    between atoms: _371  and  _372
REMARK  154  A    between atoms: _372  and  _373
REMARK  155  A    between atoms: _375  and  _377
REMARK  156  A    between atoms: _377  and  _378
REMARK  157  A    between atoms: _377  and  _380
REMARK  158  A    between atoms: _380  and  _381
REMARK  159  A    between atoms: _384  and  _386
REMARK  160  A    between atoms: _386  and  _387
REMARK  161  A    between atoms: _389  and  _391
REMARK  162  A    between atoms: _391  and  _392
REMARK  163  A    between atoms: _394  and  _396
REMARK  164  A    between atoms: _396  and  _397
REMARK  165  A    between atoms: _396  and  _399
REMARK  166  A    between atoms: _399  and  _400
REMARK  167  A    between atoms: _403  and  _405
REMARK  168  A    between atoms: _405  and  _406
REMARK  169  A    between atoms: _408  and  _410
REMARK  170  A    between atoms: _410  and  _411
REMARK  171  A    between atoms: _413  and  _415
REMARK  172  A    between atoms: _415  and  _416
REMARK  173  A    between atoms: _415  and  _418
REMARK  174  A    between atoms: _418  and  _419
REMARK  175  A    between atoms: _425  and  _427
REMARK  176  A    between atoms: _427  and  _428
REMARK  177  A    between atoms: _427  and  _430
REMARK  178  A    between atoms: _430  and  _431
REMARK  179  A    between atoms: _434  and  _436
REMARK  180  A    between atoms: _436  and  _437
REMARK  181  A    between atoms: _436  and  _439
REMARK  182  A    between atoms: _442  and  _444
REMARK  183  A    between atoms: _444  and  _445
REMARK  184  A    between atoms: _444  and  _447
REMARK  185  A    between atoms: _447  and  _448
REMARK  186  A    between atoms: _451  and  _453
REMARK  187  A    between atoms: _453  and  _454
REMARK  188  A    between atoms: _453  and  _456
REMARK  189  A    between atoms: _456  and  _457
REMARK  190  A    between atoms: _461  and  _462
REMARK  191  A    between atoms: _467  and  _469
REMARK  192  A    between atoms: _469  and  _470
REMARK  193  A    between atoms: _469  and  _472
REMARK  194  A    between atoms: _475  and  _477
REMARK  195  A    between atoms: _477  and  _478
REMARK  196  A    between atoms: _477  and  _480
REMARK  197  A    between atoms: _480  and  _481
REMARK  198  A    between atoms: _486  and  _488
REMARK  199  A    between atoms: _488  and  _489
REMARK  200  A    between atoms: _488  and  _491
REMARK  201  A    between atoms: _491  and  _492
REMARK  202  A    between atoms: _495  and  _497
REMARK  203  A    between atoms: _497  and  _498
REMARK  204  A    between atoms: _497  and  _500
REMARK  205  A    between atoms: _500  and  _501
REMARK  206  A    between atoms: _504  and  _506
REMARK  207  A    between atoms: _506  and  _507
REMARK  208  A    between atoms: _509  and  _511
REMARK  209  A    between atoms: _511  and  _512
REMARK  210  A    between atoms: _511  and  _514
REMARK  211  A    between atoms: _514  and  _515
REMARK  212  A    between atoms: _515  and  _516
REMARK  213  A    between atoms: _516  and  _517
REMARK  214  A    between atoms: _526  and  _528
REMARK  215  A    between atoms: _528  and  _529
REMARK  216  A    between atoms: _528  and  _531
REMARK  217  A    between atoms: _531  and  _532
REMARK                            x       y       z     vdW  Elec       q    Type
REMARK                         _______ _______ _______ _____ _____    ______ ____
ROOT
ATOM      1  O   HOH     1      16.128  -5.988  21.147  0.00  0.00    +0.000 OA
ENDROOT
TORSDOF 0
REMARK  Name = ../refined-set-2016/1z1h/1z1h_pocket.pdb
REMARK  217 active torsions:
REMARK  status: ('A' for Active; 'I' for Inactive)
REMARK    1  A    between atoms: _1  and  _3
REMARK    2  A    between atoms: _3  and  _4
REMARK    3  A    between atoms: _3  and  _6
REMARK    4  A    between atoms: _6  and  _7
REMARK    5  A    between atoms: _7  and  _8
REMARK    6  A    between atoms: _8  and  _9
REMARK    7  A    between atoms: _18  and  _20
REMARK    8  A    between atoms: _20  and  _21
REMARK    9  A    between atoms: _20  and  _23
REMARK   10  A    between atoms: _23  and  _24
REMARK   11  A    between atoms: _27  and  _29
REMARK   12  A    between atoms: _29  and  _30
REMARK   13  A    between atoms: _29  and  _32
REMARK   14  A    between atoms: _32  and  _33
REMARK   15  A    between atoms: _36  and  _38
REMARK   16  A    between atoms: _38  and  _39
REMARK   17  A    between atoms: _38  and  _41
REMARK   18  A    between atoms: _41  and  _42
REMARK   19  A    between atoms: _45  and  _47
REMARK   20  A    between atoms: _47  and  _48
REMARK   21  A    between atoms: _47  and  _50
REMARK   22  A    between atoms: _50  and  _51
REMARK   23  A    between atoms: _54  and  _56
REMARK   24  A    between atoms: _56  and  _57
REMARK   25  A    between atoms: _59  and  _61
REMARK   26  A    between atoms: _61  and  _62
REMARK   27  A    between atoms: _65  and  _67
REMARK   28  A    between atoms: _67  and  _68
REMARK   29  A    between atoms: _67  and  _70
REMARK   30  A    between atoms: _70  and  _71
REMARK   31  A    between atoms: _74  and  _76
REMARK   32  A    between atoms: _76  and  _77
REMARK   33  A    between atoms: _76  and  _79
REMARK   34  A    between atoms: _79  and  _80
REMARK   35  A    between atoms: _83  and  _85
REMARK   36  A    between atoms: _85  and  _86
REMARK   37  A    between atoms: _85  and  _88
REMARK   38  A    between atoms: _88  and  _89
REMARK   39  A    between atoms: _92  and  _94
REMARK   40  A    between atoms: _94  and  _95
REMARK   41  A    between atoms: _94  and  _97
REMARK   42  A    between atoms: _100  and  _102
REMARK   43  A    between atoms: _102  and  _103
REMARK   44  A    between atoms: _102  and  _105
REMARK   45  A    between atoms: _105  and  _106
REMARK   46  A    between atoms: _109  and  _111
REMARK   47  A    between atoms: _111  and  _112
REMARK   48  A    between atoms: _114  and  _116
REMARK   49  A    between atoms: _116  and  _117
REMARK   50  A    between atoms: _119  and  _121
REMARK   51  A    between atoms: _121  and  _122
REMARK   52  A    between atoms: _121  and  _124
REMARK   53  A    between atoms: _124  and  _125
REMARK   54  A    between atoms: _128  and  _130
REMARK   55  A    between atoms: _130  and  _131
REMARK   56  A    between atoms: _133  and  _135
REMARK   57  A    between atoms: _135  and  _136
REMARK   58  A    between atoms: _138  and  _140
REMARK   59  A    between atoms: _140  and  _141
REMARK   60  A    between atoms: _140  and  _143
REMARK   61  A    between atoms: _143  and  _144
REMARK   62  A    between atoms: _150  and  _152
REMARK   63  A    between atoms: _152  and  _153
REMARK   64  A    between atoms: _152  and  _155
REMARK   65  A    between atoms: _155  and  _156
REMARK   66  A    between atoms: _159  and  _161
REMARK   67  A    between atoms: _161  and  _162
REMARK   68  A    between atoms: _161  and  _164
REMARK   69  A    between atoms: _164  and  _165
REMARK   70  A    between atoms: _168  and  _170
REMARK   71  A    between atoms: _170  and  _171
REMARK   72  A    between atoms: _170  and  _173
REMARK   73  A    between atoms: _173  and  _174
REMARK   74  A    between atoms: _178  and  _179
REMARK   75  A    between atoms: _184  and  _186
REMARK   76  A    between atoms: _186  and  _187
REMARK   77  A    between atoms: _186  and  _189
REMARK   78  A    between atoms: _192  and  _194
REMARK   79  A    between atoms: _194  and  _195
REMARK   80  A    between atoms: _194  and  _197
REMARK   81  A    between atoms: _197  and  _198
REMARK   82  A    between atoms: _203  and  _205
REMARK   83  A    between atoms: _205  and  _206
REMARK   84  A    between atoms: _205  and  _208
REMARK   85  A    between atoms: _208  and  _209
REMARK   86  A    between atoms: _212  and  _214
REMARK   87  A    between atoms: _214  and  _215
REMARK   88  A    between atoms: _214  and  _217
REMARK   89  A    between atoms: _217  and  _218
REMARK   90  A    between atoms: _221  and  _223
REMARK   91  A    between atoms: _223  and  _224
REMARK   92  A    between atoms: _226  and  _228
REMARK   93  A    between atoms: _228  and  _229
REMARK   94  A    between atoms: _228  and  _231
REMARK   95  A    between atoms: _231  and  _232
REMARK   96  A    between atoms: _232  and  _233
REMARK   97  A    between atoms: _233  and  _234
REMARK   98  A    between atoms: _243  and  _245
REMARK   99  A    between atoms: _245  and  _246
REMARK  100  A    between atoms: _245  and  _248
REMARK  101  A    between atoms: _248  and  _249
REMARK  102  A    between atoms: _254  and  _256
REMARK  103  A    between atoms: _256  and  _257
REMARK  104  A    between atoms: _256  and  _259
REMARK  105  A    between atoms: _259  and  _260
REMARK  106  A    between atoms: _260  and  _261
REMARK  107  A    between atoms: _261  and  _262
REMARK  108  A    between atoms: _271  and  _273
REMARK  109  A    between atoms: _273  and  _274
REMARK  110  A    between atoms: _273  and  _276
REMARK  111  A    between atoms: _276  and  _277
REMARK  112  A    between atoms: _280  and  _282
REMARK  113  A    between atoms: _282  and  _283
REMARK  114  A    between atoms: _282  and  _285
REMARK  115  A    between atoms: _285  and  _286
REMARK  116  A    between atoms: _289  and  _291
REMARK  117  A    between atoms: _291  and  _292
REMARK  118  A    between atoms: _291  and  _294
REMARK  119  A    between atoms: _294  and  _295
REMARK  120  A    between atoms: _298  and  _300
REMARK  121  A    between atoms: _300  and  _301
REMARK  122  A    between atoms: _300  and  _303
REMARK  123  A    between atoms: _303  and  _304
REMARK  124  A    between atoms: _307  and  _309
REMARK  125  A    between atoms: _309  and  _310
REMARK  126  A    between atoms: _312  and  _314
REMARK  127  A    between atoms: _314  and  _315
REMARK  128  A    between atoms: _318  and  _320
REMARK  129  A    between atoms: _320  and  _321
REMARK  130  A    between atoms: _320  and  _323
REMARK  131  A    between atoms: _323  and  _324
REMARK  132  A    between atoms: _327  and  _329
REMARK  133  A    between atoms: _329  and  _330
REMARK  134  A    between atoms: _329  and  _332
REMARK  135  A    between atoms: _332  and  _333
REMARK  136  A    between atoms: _336  and  _338
REMARK  137  A    between atoms: _338  and  _339
REMARK  138  A    between atoms: _338  and  _341
REMARK  139  A    between atoms: _341  and  _342
REMARK  140  A    between atoms: _345  and  _347
REMARK  141  A    between atoms: _347  and  _348
REMARK  142  A    between atoms: _347  and  _350
REMARK  143  A    between atoms: _353  and  _355
REMARK  144  A    between atoms: _355  and  _356
REMARK  145  A    between atoms: _355  and  _358
REMARK  146  A    between atoms: _358  and  _359
REMARK  147  A    between atoms: _359  and  _360
REMARK  148  A    between atoms: _360  and  _361
REMARK  149  A    between atoms: _361  and  _362
REMARK  150  A    between atoms: _366  and  _368
REMARK  151  A    between atoms: _368  and  _369
REMARK  152  A    between atoms: _368  and  _371
REMARK  153  A    between atoms: _371  and  _372
REMARK  154  A    between atoms: _372  and  _373
REMARK  155  A    between atoms: _375  and  _377
REMARK  156  A    between atoms: _377  and  _378
REMARK  157  A    between atoms: _377  and  _380
REMARK  158  A    between atoms: _380  and  _381
REMARK  159  A    between atoms: _384  and  _386
REMARK  160  A    between atoms: _386  and  _387
REMARK  161  A    between atoms: _389  and  _391
REMARK  162  A    between atoms: _391  and  _392
REMARK  163  A    between atoms: _394  and  _396
REMARK  164  A    between atoms: _396  and  _397
REMARK  165  A    between atoms: _396  and  _399
REMARK  166  A    between atoms: _399  and  _400
REMARK  167  A    between atoms: _403  and  _405
REMARK  168  A    between atoms: _405  and  _406
REMARK  169  A    between atoms: _408  and  _410
REMARK  170  A    between atoms: _410  and  _411
REMARK  171  A    between atoms: _413  and  _415
REMARK  172  A    between atoms: _415  and  _416
REMARK  173  A    between atoms: _415  and  _418
REMARK  174  A    between atoms: _418  and  _419
REMARK  175  A    between atoms: _425  and  _427
REMARK  176  A    between atoms: _427  and  _428
REMARK  177  A    between atoms: _427  and  _430
REMARK  178  A    between atoms: _430  and  _431
REMARK  179  A    between atoms: _434  and  _436
REMARK  180  A    between atoms: _436  and  _437
REMARK  181  A    between atoms: _436  and  _439
REMARK  182  A    between atoms: _442  and  _444
REMARK  183  A    between atoms: _444  and  _445
REMARK  184  A    between atoms: _444  and  _447
REMARK  185  A    between atoms: _447  and  _448
REMARK  186  A    between atoms: _451  and  _453
REMARK  187  A    between atoms: _453  and  _454
REMARK  188  A    between atoms: _453  and  _456
REMARK  189  A    between atoms: _456  and  _457
REMARK  190  A    between atoms: _461  and  _462
REMARK  191  A    between atoms: _467  and  _469
REMARK  192  A    between atoms: _469  and  _470
REMARK  193  A    between atoms: _469  and  _472
REMARK  194  A    between atoms: _475  and  _477
REMARK  195  A    between atoms: _477  and  _478
REMARK  196  A    between atoms: _477  and  _480
REMARK  197  A    between atoms: _480  and  _481
REMARK  198  A    between atoms: _486  and  _488
REMARK  199  A    between atoms: _488  and  _489
REMARK  200  A    between atoms: _488  and  _491
REMARK  201  A    between atoms: _491  and  _492
REMARK  202  A    between atoms: _495  and  _497
REMARK  203  A    between atoms: _497  and  _498
REMARK  204  A    between atoms: _497  and  _500
REMARK  205  A    between atoms: _500  and  _501
REMARK  206  A    between atoms: _504  and  _506
REMARK  207  A    between atoms: _506  and  _507
REMARK  208  A    between atoms: _509  and  _511
REMARK  209  A    between atoms: _511  and  _512
REMARK  210  A    between atoms: _511  and  _514
REMARK  211  A    between atoms: _514  and  _515
REMARK  212  A    between atoms: _515  and  _516
REMARK  213  A    between atoms: _516  and  _517
REMARK  214  A    between atoms: _526  and  _528
REMARK  215  A    between atoms: _528  and  _529
REMARK  216  A    between atoms: _528  and  _531
REMARK  217  A    between atoms: _531  and  _532
REMARK                            x       y       z     vdW  Elec       q    Type
REMARK                         _______ _______ _______ _____ _____    ______ ____
ROOT
ATOM      1  O   HOH     1       0.198  -7.842   8.790  0.00  0.00    +0.000 OA
ENDROOT
TORSDOF 0
REMARK  Name = ../refined-set-2016/1z1h/1z1h_pocket.pdb
REMARK  217 active torsions:
REMARK  status: ('A' for Active; 'I' for Inactive)
REMARK    1  A    between atoms: _1  and  _3
REMARK    2  A    between atoms: _3  and  _4
REMARK    3  A    between atoms: _3  and  _6
REMARK    4  A    between atoms: _6  and  _7
REMARK    5  A    between atoms: _7  and  _8
REMARK    6  A    between atoms: _8  and  _9
REMARK    7  A    between atoms: _18  and  _20
REMARK    8  A    between atoms: _20  and  _21
REMARK    9  A    between atoms: _20  and  _23
REMARK   10  A    between atoms: _23  and  _24
REMARK   11  A    between atoms: _27  and  _29
REMARK   12  A    between atoms: _29  and  _30
REMARK   13  A    between atoms: _29  and  _32
REMARK   14  A    between atoms: _32  and  _33
REMARK   15  A    between atoms: _36  and  _38
REMARK   16  A    between atoms: _38  and  _39
REMARK   17  A    between atoms: _38  and  _41
REMARK   18  A    between atoms: _41  and  _42
REMARK   19  A    between atoms: _45  and  _47
REMARK   20  A    between atoms: _47  and  _48
REMARK   21  A    between atoms: _47  and  _50
REMARK   22  A    between atoms: _50  and  _51
REMARK   23  A    between atoms: _54  and  _56
REMARK   24  A    between atoms: _56  and  _57
REMARK   25  A    between atoms: _59  and  _61
REMARK   26  A    between atoms: _61  and  _62
REMARK   27  A    between atoms: _65  and  _67
REMARK   28  A    between atoms: _67  and  _68
REMARK   29  A    between atoms: _67  and  _70
REMARK   30  A    between atoms: _70  and  _71
REMARK   31  A    between atoms: _74  and  _76
REMARK   32  A    between atoms: _76  and  _77
REMARK   33  A    between atoms: _76  and  _79
REMARK   34  A    between atoms: _79  and  _80
REMARK   35  A    between atoms: _83  and  _85
REMARK   36  A    between atoms: _85  and  _86
REMARK   37  A    between atoms: _85  and  _88
REMARK   38  A    between atoms: _88  and  _89
REMARK   39  A    between atoms: _92  and  _94
REMARK   40  A    between atoms: _94  and  _95
REMARK   41  A    between atoms: _94  and  _97
REMARK   42  A    between atoms: _100  and  _102
REMARK   43  A    between atoms: _102  and  _103
REMARK   44  A    between atoms: _102  and  _105
REMARK   45  A    between atoms: _105  and  _106
REMARK   46  A    between atoms: _109  and  _111
REMARK   47  A    between atoms: _111  and  _112
REMARK   48  A    between atoms: _114  and  _116
REMARK   49  A    between atoms: _116  and  _117
REMARK   50  A    between atoms: _119  and  _121
REMARK   51  A    between atoms: _121  and  _122
REMARK   52  A    between atoms: _121  and  _124
REMARK   53  A    between atoms: _124  and  _125
REMARK   54  A    between atoms: _128  and  _130
REMARK   55  A    between atoms: _130  and  _131
REMARK   56  A    between atoms: _133  and  _135
REMARK   57  A    between atoms: _135  and  _136
REMARK   58  A    between atoms: _138  and  _140
REMARK   59  A    between atoms: _140  and  _141
REMARK   60  A    between atoms: _140  and  _143
REMARK   61  A    between atoms: _143  and  _144
REMARK   62  A    between atoms: _150  and  _152
REMARK   63  A    between atoms: _152  and  _153
REMARK   64  A    between atoms: _152  and  _155
REMARK   65  A    between atoms: _155  and  _156
REMARK   66  A    between atoms: _159  and  _161
REMARK   67  A    between atoms: _161  and  _162
REMARK   68  A    between atoms: _161  and  _164
REMARK   69  A    between atoms: _164  and  _165
REMARK   70  A    between atoms: _168  and  _170
REMARK   71  A    between atoms: _170  and  _171
REMARK   72  A    between atoms: _170  and  _173
REMARK   73  A    between atoms: _173  and  _174
REMARK   74  A    between atoms: _178  and  _179
REMARK   75  A    between atoms: _184  and  _186
REMARK   76  A    between atoms: _186  and  _187
REMARK   77  A    between atoms: _186  and  _189
REMARK   78  A    between atoms: _192  and  _194
REMARK   79  A    between atoms: _194  and  _195
REMARK   80  A    between atoms: _194  and  _197
REMARK   81  A    between atoms: _197  and  _198
REMARK   82  A    between atoms: _203  and  _205
REMARK   83  A    between atoms: _205  and  _206
REMARK   84  A    between atoms: _205  and  _208
REMARK   85  A    between atoms: _208  and  _209
REMARK   86  A    between atoms: _212  and  _214
REMARK   87  A    between atoms: _214  and  _215
REMARK   88  A    between atoms: _214  and  _217
REMARK   89  A    between atoms: _217  and  _218
REMARK   90  A    between atoms: _221  and  _223
REMARK   91  A    between atoms: _223  and  _224
REMARK   92  A    between atoms: _226  and  _228
REMARK   93  A    between atoms: _228  and  _229
REMARK   94  A    between atoms: _228  and  _231
REMARK   95  A    between atoms: _231  and  _232
REMARK   96  A    between atoms: _232  and  _233
REMARK   97  A    between atoms: _233  and  _234
REMARK   98  A    between atoms: _243  and  _245
REMARK   99  A    between atoms: _245  and  _246
REMARK  100  A    between atoms: _245  and  _248
REMARK  101  A    between atoms: _248  and  _249
REMARK  102  A    between atoms: _254  and  _256
REMARK  103  A    between atoms: _256  and  _257
REMARK  104  A    between atoms: _256  and  _259
REMARK  105  A    between atoms: _259  and  _260
REMARK  106  A    between atoms: _260  and  _261
REMARK  107  A    between atoms: _261  and  _262
REMARK  108  A    between atoms: _271  and  _273
REMARK  109  A    between atoms: _273  and  _274
REMARK  110  A    between atoms: _273  and  _276
REMARK  111  A    between atoms: _276  and  _277
REMARK  112  A    between atoms: _280  and  _282
REMARK  113  A    between atoms: _282  and  _283
REMARK  114  A    between atoms: _282  and  _285
REMARK  115  A    between atoms: _285  and  _286
REMARK  116  A    between atoms: _289  and  _291
REMARK  117  A    between atoms: _291  and  _292
REMARK  118  A    between atoms: _291  and  _294
REMARK  119  A    between atoms: _294  and  _295
REMARK  120  A    between atoms: _298  and  _300
REMARK  121  A    between atoms: _300  and  _301
REMARK  122  A    between atoms: _300  and  _303
REMARK  123  A    between atoms: _303  and  _304
REMARK  124  A    between atoms: _307  and  _309
REMARK  125  A    between atoms: _309  and  _310
REMARK  126  A    between atoms: _312  and  _314
REMARK  127  A    between atoms: _314  and  _315
REMARK  128  A    between atoms: _318  and  _320
REMARK  129  A    between atoms: _320  and  _321
REMARK  130  A    between atoms: _320  and  _323
REMARK  131  A    between atoms: _323  and  _324
REMARK  132  A    between atoms: _327  and  _329
REMARK  133  A    between atoms: _329  and  _330
REMARK  134  A    between atoms: _329  and  _332
REMARK  135  A    between atoms: _332  and  _333
REMARK  136  A    between atoms: _336  and  _338
REMARK  137  A    between atoms: _338  and  _339
REMARK  138  A    between atoms: _338  and  _341
REMARK  139  A    between atoms: _341  and  _342
REMARK  140  A    between atoms: _345  and  _347
REMARK  141  A    between atoms: _347  and  _348
REMARK  142  A    between atoms: _347  and  _350
REMARK  143  A    between atoms: _353  and  _355
REMARK  144  A    between atoms: _355  and  _356
REMARK  145  A    between atoms: _355  and  _358
REMARK  146  A    between atoms: _358  and  _359
REMARK  147  A    between atoms: _359  and  _360
REMARK  148  A    between atoms: _360  and  _361
REMARK  149  A    between atoms: _361  and  _362
REMARK  150  A    between atoms: _366  and  _368
REMARK  151  A    between atoms: _368  and  _369
REMARK  152  A    between atoms: _368  and  _371
REMARK  153  A    between atoms: _371  and  _372
REMARK  154  A    between atoms: _372  and  _373
REMARK  155  A    between atoms: _375  and  _377
REMARK  156  A    between atoms: _377  and  _378
REMARK  157  A    between atoms: _377  and  _380
REMARK  158  A    between atoms: _380  and  _381
REMARK  159  A    between atoms: _384  and  _386
REMARK  160  A    between atoms: _386  and  _387
REMARK  161  A    between atoms: _389  and  _391
REMARK  162  A    between atoms: _391  and  _392
REMARK  163  A    between atoms: _394  and  _396
REMARK  164  A    between atoms: _396  and  _397
REMARK  165  A    between atoms: _396  and  _399
REMARK  166  A    between atoms: _399  and  _400
REMARK  167  A    between atoms: _403  and  _405
REMARK  168  A    between atoms: _405  and  _406
REMARK  169  A    between atoms: _408  and  _410
REMARK  170  A    between atoms: _410  and  _411
REMARK  171  A    between atoms: _413  and  _415
REMARK  172  A    between atoms: _415  and  _416
REMARK  173  A    between atoms: _415  and  _418
REMARK  174  A    between atoms: _418  and  _419
REMARK  175  A    between atoms: _425  and  _427
REMARK  176  A    between atoms: _427  and  _428
REMARK  177  A    between atoms: _427  and  _430
REMARK  178  A    between atoms: _430  and  _431
REMARK  179  A    between atoms: _434  and  _436
REMARK  180  A    between atoms: _436  and  _437
REMARK  181  A    between atoms: _436  and  _439
REMARK  182  A    between atoms: _442  and  _444
REMARK  183  A    between atoms: _444  and  _445
REMARK  184  A    between atoms: _444  and  _447
REMARK  185  A    between atoms: _447  and  _448
REMARK  186  A    between atoms: _451  and  _453
REMARK  187  A    between atoms: _453  and  _454
REMARK  188  A    between atoms: _453  and  _456
REMARK  189  A    between atoms: _456  and  _457
REMARK  190  A    between atoms: _461  and  _462
REMARK  191  A    between atoms: _467  and  _469
REMARK  192  A    between atoms: _469  and  _470
REMARK  193  A    between atoms: _469  and  _472
REMARK  194  A    between atoms: _475  and  _477
REMARK  195  A    between atoms: _477  and  _478
REMARK  196  A    between atoms: _477  and  _480
REMARK  197  A    between atoms: _480  and  _481
REMARK  198  A    between atoms: _486  and  _488
REMARK  199  A    between atoms: _488  and  _489
REMARK  200  A    between atoms: _488  and  _491
REMARK  201  A    between atoms: _491  and  _492
REMARK  202  A    between atoms: _495  and  _497
REMARK  203  A    between atoms: _497  and  _498
REMARK  204  A    between atoms: _497  and  _500
REMARK  205  A    between atoms: _500  and  _501
REMARK  206  A    between atoms: _504  and  _506
REMARK  207  A    between atoms: _506  and  _507
REMARK  208  A    between atoms: _509  and  _511
REMARK  209  A    between atoms: _511  and  _512
REMARK  210  A    between atoms: _511  and  _514
REMARK  211  A    between atoms: _514  and  _515
REMARK  212  A    between atoms: _515  and  _516
REMARK  213  A    between atoms: _516  and  _517
REMARK  214  A    between atoms: _526  and  _528
REMARK  215  A    between atoms: _528  and  _529
REMARK  216  A    between atoms: _528  and  _531
REMARK  217  A    between atoms: _531  and  _532
REMARK                            x       y       z     vdW  Elec       q    Type
REMARK                         _______ _______ _______ _____ _____    ______ ____
ROOT
ATOM      1  O   HOH     1       4.872  -5.452  21.305  0.00  0.00    +0.000 OA
ENDROOT
TORSDOF 0
REMARK  Name = ../refined-set-2016/1z1h/1z1h_pocket.pdb
REMARK  217 active torsions:
REMARK  status: ('A' for Active; 'I' for Inactive)
REMARK    1  A    between atoms: _1  and  _3
REMARK    2  A    between atoms: _3  and  _4
REMARK    3  A    between atoms: _3  and  _6
REMARK    4  A    between atoms: _6  and  _7
REMARK    5  A    between atoms: _7  and  _8
REMARK    6  A    between atoms: _8  and  _9
REMARK    7  A    between atoms: _18  and  _20
REMARK    8  A    between atoms: _20  and  _21
REMARK    9  A    between atoms: _20  and  _23
REMARK   10  A    between atoms: _23  and  _24
REMARK   11  A    between atoms: _27  and  _29
REMARK   12  A    between atoms: _29  and  _30
REMARK   13  A    between atoms: _29  and  _32
REMARK   14  A    between atoms: _32  and  _33
REMARK   15  A    between atoms: _36  and  _38
REMARK   16  A    between atoms: _38  and  _39
REMARK   17  A    between atoms: _38  and  _41
REMARK   18  A    between atoms: _41  and  _42
REMARK   19  A    between atoms: _45  and  _47
REMARK   20  A    between atoms: _47  and  _48
REMARK   21  A    between atoms: _47  and  _50
REMARK   22  A    between atoms: _50  and  _51
REMARK   23  A    between atoms: _54  and  _56
REMARK   24  A    between atoms: _56  and  _57
REMARK   25  A    between atoms: _59  and  _61
REMARK   26  A    between atoms: _61  and  _62
REMARK   27  A    between atoms: _65  and  _67
REMARK   28  A    between atoms: _67  and  _68
REMARK   29  A    between atoms: _67  and  _70
REMARK   30  A    between atoms: _70  and  _71
REMARK   31  A    between atoms: _74  and  _76
REMARK   32  A    between atoms: _76  and  _77
REMARK   33  A    between atoms: _76  and  _79
REMARK   34  A    between atoms: _79  and  _80
REMARK   35  A    between atoms: _83  and  _85
REMARK   36  A    between atoms: _85  and  _86
REMARK   37  A    between atoms: _85  and  _88
REMARK   38  A    between atoms: _88  and  _89
REMARK   39  A    between atoms: _92  and  _94
REMARK   40  A    between atoms: _94  and  _95
REMARK   41  A    between atoms: _94  and  _97
REMARK   42  A    between atoms: _100  and  _102
REMARK   43  A    between atoms: _102  and  _103
REMARK   44  A    between atoms: _102  and  _105
REMARK   45  A    between atoms: _105  and  _106
REMARK   46  A    between atoms: _109  and  _111
REMARK   47  A    between atoms: _111  and  _112
REMARK   48  A    between atoms: _114  and  _116
REMARK   49  A    between atoms: _116  and  _117
REMARK   50  A    between atoms: _119  and  _121
REMARK   51  A    between atoms: _121  and  _122
REMARK   52  A    between atoms: _121  and  _124
REMARK   53  A    between atoms: _124  and  _125
REMARK   54  A    between atoms: _128  and  _130
REMARK   55  A    between atoms: _130  and  _131
REMARK   56  A    between atoms: _133  and  _135
REMARK   57  A    between atoms: _135  and  _136
REMARK   58  A    between atoms: _138  and  _140
REMARK   59  A    between atoms: _140  and  _141
REMARK   60  A    between atoms: _140  and  _143
REMARK   61  A    between atoms: _143  and  _144
REMARK   62  A    between atoms: _150  and  _152
REMARK   63  A    between atoms: _152  and  _153
REMARK   64  A    between atoms: _152  and  _155
REMARK   65  A    between atoms: _155  and  _156
REMARK   66  A    between atoms: _159  and  _161
REMARK   67  A    between atoms: _161  and  _162
REMARK   68  A    between atoms: _161  and  _164
REMARK   69  A    between atoms: _164  and  _165
REMARK   70  A    between atoms: _168  and  _170
REMARK   71  A    between atoms: _170  and  _171
REMARK   72  A    between atoms: _170  and  _173
REMARK   73  A    between atoms: _173  and  _174
REMARK   74  A    between atoms: _178  and  _179
REMARK   75  A    between atoms: _184  and  _186
REMARK   76  A    between atoms: _186  and  _187
REMARK   77  A    between atoms: _186  and  _189
REMARK   78  A    between atoms: _192  and  _194
REMARK   79  A    between atoms: _194  and  _195
REMARK   80  A    between atoms: _194  and  _197
REMARK   81  A    between atoms: _197  and  _198
REMARK   82  A    between atoms: _203  and  _205
REMARK   83  A    between atoms: _205  and  _206
REMARK   84  A    between atoms: _205  and  _208
REMARK   85  A    between atoms: _208  and  _209
REMARK   86  A    between atoms: _212  and  _214
REMARK   87  A    between atoms: _214  and  _215
REMARK   88  A    between atoms: _214  and  _217
REMARK   89  A    between atoms: _217  and  _218
REMARK   90  A    between atoms: _221  and  _223
REMARK   91  A    between atoms: _223  and  _224
REMARK   92  A    between atoms: _226  and  _228
REMARK   93  A    between atoms: _228  and  _229
REMARK   94  A    between atoms: _228  and  _231
REMARK   95  A    between atoms: _231  and  _232
REMARK   96  A    between atoms: _232  and  _233
REMARK   97  A    between atoms: _233  and  _234
REMARK   98  A    between atoms: _243  and  _245
REMARK   99  A    between atoms: _245  and  _246
REMARK  100  A    between atoms: _245  and  _248
REMARK  101  A    between atoms: _248  and  _249
REMARK  102  A    between atoms: _254  and  _256
REMARK  103  A    between atoms: _256  and  _257
REMARK  104  A    between atoms: _256  and  _259
REMARK  105  A    between atoms: _259  and  _260
REMARK  106  A    between atoms: _260  and  _261
REMARK  107  A    between atoms: _261  and  _262
REMARK  108  A    between atoms: _271  and  _273
REMARK  109  A    between atoms: _273  and  _274
REMARK  110  A    between atoms: _273  and  _276
REMARK  111  A    between atoms: _276  and  _277
REMARK  112  A    between atoms: _280  and  _282
REMARK  113  A    between atoms: _282  and  _283
REMARK  114  A    between atoms: _282  and  _285
REMARK  115  A    between atoms: _285  and  _286
REMARK  116  A    between atoms: _289  and  _291
REMARK  117  A    between atoms: _291  and  _292
REMARK  118  A    between atoms: _291  and  _294
REMARK  119  A    between atoms: _294  and  _295
REMARK  120  A    between atoms: _298  and  _300
REMARK  121  A    between atoms: _300  and  _301
REMARK  122  A    between atoms: _300  and  _303
REMARK  123  A    between atoms: _303  and  _304
REMARK  124  A    between atoms: _307  and  _309
REMARK  125  A    between atoms: _309  and  _310
REMARK  126  A    between atoms: _312  and  _314
REMARK  127  A    between atoms: _314  and  _315
REMARK  128  A    between atoms: _318  and  _320
REMARK  129  A    between atoms: _320  and  _321
REMARK  130  A    between atoms: _320  and  _323
REMARK  131  A    between atoms: _323  and  _324
REMARK  132  A    between atoms: _327  and  _329
REMARK  133  A    between atoms: _329  and  _330
REMARK  134  A    between atoms: _329  and  _332
REMARK  135  A    between atoms: _332  and  _333
REMARK  136  A    between atoms: _336  and  _338
REMARK  137  A    between atoms: _338  and  _339
REMARK  138  A    between atoms: _338  and  _341
REMARK  139  A    between atoms: _341  and  _342
REMARK  140  A    between atoms: _345  and  _347
REMARK  141  A    between atoms: _347  and  _348
REMARK  142  A    between atoms: _347  and  _350
REMARK  143  A    between atoms: _353  and  _355
REMARK  144  A    between atoms: _355  and  _356
REMARK  145  A    between atoms: _355  and  _358
REMARK  146  A    between atoms: _358  and  _359
REMARK  147  A    between atoms: _359  and  _360
REMARK  148  A    between atoms: _360  and  _361
REMARK  149  A    between atoms: _361  and  _362
REMARK  150  A    between atoms: _366  and  _368
REMARK  151  A    between atoms: _368  and  _369
REMARK  152  A    between atoms: _368  and  _371
REMARK  153  A    between atoms: _371  and  _372
REMARK  154  A    between atoms: _372  and  _373
REMARK  155  A    between atoms: _375  and  _377
REMARK  156  A    between atoms: _377  and  _378
REMARK  157  A    between atoms: _377  and  _380
REMARK  158  A    between atoms: _380  and  _381
REMARK  159  A    between atoms: _384  and  _386
REMARK  160  A    between atoms: _386  and  _387
REMARK  161  A    between atoms: _389  and  _391
REMARK  162  A    between atoms: _391  and  _392
REMARK  163  A    between atoms: _394  and  _396
REMARK  164  A    between atoms: _396  and  _397
REMARK  165  A    between atoms: _396  and  _399
REMARK  166  A    between atoms: _399  and  _400
REMARK  167  A    between atoms: _403  and  _405
REMARK  168  A    between atoms: _405  and  _406
REMARK  169  A    between atoms: _408  and  _410
REMARK  170  A    between atoms: _410  and  _411
REMARK  171  A    between atoms: _413  and  _415
REMARK  172  A    between atoms: _415  and  _416
REMARK  173  A    between atoms: _415  and  _418
REMARK  174  A    between atoms: _418  and  _419
REMARK  175  A    between atoms: _425  and  _427
REMARK  176  A    between atoms: _427  and  _428
REMARK  177  A    between atoms: _427  and  _430
REMARK  178  A    between atoms: _430  and  _431
REMARK  179  A    between atoms: _434  and  _436
REMARK  180  A    between atoms: _436  and  _437
REMARK  181  A    between atoms: _436  and  _439
REMARK  182  A    between atoms: _442  and  _444
REMARK  183  A    between atoms: _444  and  _445
REMARK  184  A    between atoms: _444  and  _447
REMARK  185  A    between atoms: _447  and  _448
REMARK  186  A    between atoms: _451  and  _453
REMARK  187  A    between atoms: _453  and  _454
REMARK  188  A    between atoms: _453  and  _456
REMARK  189  A    between atoms: _456  and  _457
REMARK  190  A    between atoms: _461  and  _462
REMARK  191  A    between atoms: _467  and  _469
REMARK  192  A    between atoms: _469  and  _470
REMARK  193  A    between atoms: _469  and  _472
REMARK  194  A    between atoms: _475  and  _477
REMARK  195  A    between atoms: _477  and  _478
REMARK  196  A    between atoms: _477  and  _480
REMARK  197  A    between atoms: _480  and  _481
REMARK  198  A    between atoms: _486  and  _488
REMARK  199  A    between atoms: _488  and  _489
REMARK  200  A    between atoms: _488  and  _491
REMARK  201  A    between atoms: _491  and  _492
REMARK  202  A    between atoms: _495  and  _497
REMARK  203  A    between atoms: _497  and  _498
REMARK  204  A    between atoms: _497  and  _500
REMARK  205  A    between atoms: _500  and  _501
REMARK  206  A    between atoms: _504  and  _506
REMARK  207  A    between atoms: _506  and  _507
REMARK  208  A    between atoms: _509  and  _511
REMARK  209  A    between atoms: _511  and  _512
REMARK  210  A    between atoms: _511  and  _514
REMARK  211  A    between atoms: _514  and  _515
REMARK  212  A    between atoms: _515  and  _516
REMARK  213  A    between atoms: _516  and  _517
REMARK  214  A    between atoms: _526  and  _528
REMARK  215  A    between atoms: _528  and  _529
REMARK  216  A    between atoms: _528  and  _531
REMARK  217  A    between atoms: _531  and  _532
REMARK                            x       y       z     vdW  Elec       q    Type
REMARK                         _______ _______ _______ _____ _____    ______ ____
ROOT
ATOM      1  O   HOH     1       5.407  -3.444  23.393  0.00  0.00    +0.000 OA
ENDROOT
TORSDOF 0
REMARK  Name = ../refined-set-2016/1z1h/1z1h_pocket.pdb
REMARK  217 active torsions:
REMARK  status: ('A' for Active; 'I' for Inactive)
REMARK    1  A    between atoms: _1  and  _3
REMARK    2  A    between atoms: _3  and  _4
REMARK    3  A    between atoms: _3  and  _6
REMARK    4  A    between atoms: _6  and  _7
REMARK    5  A    between atoms: _7  and  _8
REMARK    6  A    between atoms: _8  and  _9
REMARK    7  A    between atoms: _18  and  _20
REMARK    8  A    between atoms: _20  and  _21
REMARK    9  A    between atoms: _20  and  _23
REMARK   10  A    between atoms: _23  and  _24
REMARK   11  A    between atoms: _27  and  _29
REMARK   12  A    between atoms: _29  and  _30
REMARK   13  A    between atoms: _29  and  _32
REMARK   14  A    between atoms: _32  and  _33
REMARK   15  A    between atoms: _36  and  _38
REMARK   16  A    between atoms: _38  and  _39
REMARK   17  A    between atoms: _38  and  _41
REMARK   18  A    between atoms: _41  and  _42
REMARK   19  A    between atoms: _45  and  _47
REMARK   20  A    between atoms: _47  and  _48
REMARK   21  A    between atoms: _47  and  _50
REMARK   22  A    between atoms: _50  and  _51
REMARK   23  A    between atoms: _54  and  _56
REMARK   24  A    between atoms: _56  and  _57
REMARK   25  A    between atoms: _59  and  _61
REMARK   26  A    between atoms: _61  and  _62
REMARK   27  A    between atoms: _65  and  _67
REMARK   28  A    between atoms: _67  and  _68
REMARK   29  A    between atoms: _67  and  _70
REMARK   30  A    between atoms: _70  and  _71
REMARK   31  A    between atoms: _74  and  _76
REMARK   32  A    between atoms: _76  and  _77
REMARK   33  A    between atoms: _76  and  _79
REMARK   34  A    between atoms: _79  and  _80
REMARK   35  A    between atoms: _83  and  _85
REMARK   36  A    between atoms: _85  and  _86
REMARK   37  A    between atoms: _85  and  _88
REMARK   38  A    between atoms: _88  and  _89
REMARK   39  A    between atoms: _92  and  _94
REMARK   40  A    between atoms: _94  and  _95
REMARK   41  A    between atoms: _94  and  _97
REMARK   42  A    between atoms: _100  and  _102
REMARK   43  A    between atoms: _102  and  _103
REMARK   44  A    between atoms: _102  and  _105
REMARK   45  A    between atoms: _105  and  _106
REMARK   46  A    between atoms: _109  and  _111
REMARK   47  A    between atoms: _111  and  _112
REMARK   48  A    between atoms: _114  and  _116
REMARK   49  A    between atoms: _116  and  _117
REMARK   50  A    between atoms: _119  and  _121
REMARK   51  A    between atoms: _121  and  _122
REMARK   52  A    between atoms: _121  and  _124
REMARK   53  A    between atoms: _124  and  _125
REMARK   54  A    between atoms: _128  and  _130
REMARK   55  A    between atoms: _130  and  _131
REMARK   56  A    between atoms: _133  and  _135
REMARK   57  A    between atoms: _135  and  _136
REMARK   58  A    between atoms: _138  and  _140
REMARK   59  A    between atoms: _140  and  _141
REMARK   60  A    between atoms: _140  and  _143
REMARK   61  A    between atoms: _143  and  _144
REMARK   62  A    between atoms: _150  and  _152
REMARK   63  A    between atoms: _152  and  _153
REMARK   64  A    between atoms: _152  and  _155
REMARK   65  A    between atoms: _155  and  _156
REMARK   66  A    between atoms: _159  and  _161
REMARK   67  A    between atoms: _161  and  _162
REMARK   68  A    between atoms: _161  and  _164
REMARK   69  A    between atoms: _164  and  _165
REMARK   70  A    between atoms: _168  and  _170
REMARK   71  A    between atoms: _170  and  _171
REMARK   72  A    between atoms: _170  and  _173
REMARK   73  A    between atoms: _173  and  _174
REMARK   74  A    between atoms: _178  and  _179
REMARK   75  A    between atoms: _184  and  _186
REMARK   76  A    between atoms: _186  and  _187
REMARK   77  A    between atoms: _186  and  _189
REMARK   78  A    between atoms: _192  and  _194
REMARK   79  A    between atoms: _194  and  _195
REMARK   80  A    between atoms: _194  and  _197
REMARK   81  A    between atoms: _197  and  _198
REMARK   82  A    between atoms: _203  and  _205
REMARK   83  A    between atoms: _205  and  _206
REMARK   84  A    between atoms: _205  and  _208
REMARK   85  A    between atoms: _208  and  _209
REMARK   86  A    between atoms: _212  and  _214
REMARK   87  A    between atoms: _214  and  _215
REMARK   88  A    between atoms: _214  and  _217
REMARK   89  A    between atoms: _217  and  _218
REMARK   90  A    between atoms: _221  and  _223
REMARK   91  A    between atoms: _223  and  _224
REMARK   92  A    between atoms: _226  and  _228
REMARK   93  A    between atoms: _228  and  _229
REMARK   94  A    between atoms: _228  and  _231
REMARK   95  A    between atoms: _231  and  _232
REMARK   96  A    between atoms: _232  and  _233
REMARK   97  A    between atoms: _233  and  _234
REMARK   98  A    between atoms: _243  and  _245
REMARK   99  A    between atoms: _245  and  _246
REMARK  100  A    between atoms: _245  and  _248
REMARK  101  A    between atoms: _248  and  _249
REMARK  102  A    between atoms: _254  and  _256
REMARK  103  A    between atoms: _256  and  _257
REMARK  104  A    between atoms: _256  and  _259
REMARK  105  A    between atoms: _259  and  _260
REMARK  106  A    between atoms: _260  and  _261
REMARK  107  A    between atoms: _261  and  _262
REMARK  108  A    between atoms: _271  and  _273
REMARK  109  A    between atoms: _273  and  _274
REMARK  110  A    between atoms: _273  and  _276
REMARK  111  A    between atoms: _276  and  _277
REMARK  112  A    between atoms: _280  and  _282
REMARK  113  A    between atoms: _282  and  _283
REMARK  114  A    between atoms: _282  and  _285
REMARK  115  A    between atoms: _285  and  _286
REMARK  116  A    between atoms: _289  and  _291
REMARK  117  A    between atoms: _291  and  _292
REMARK  118  A    between atoms: _291  and  _294
REMARK  119  A    between atoms: _294  and  _295
REMARK  120  A    between atoms: _298  and  _300
REMARK  121  A    between atoms: _300  and  _301
REMARK  122  A    between atoms: _300  and  _303
REMARK  123  A    between atoms: _303  and  _304
REMARK  124  A    between atoms: _307  and  _309
REMARK  125  A    between atoms: _309  and  _310
REMARK  126  A    between atoms: _312  and  _314
REMARK  127  A    between atoms: _314  and  _315
REMARK  128  A    between atoms: _318  and  _320
REMARK  129  A    between atoms: _320  and  _321
REMARK  130  A    between atoms: _320  and  _323
REMARK  131  A    between atoms: _323  and  _324
REMARK  132  A    between atoms: _327  and  _329
REMARK  133  A    between atoms: _329  and  _330
REMARK  134  A    between atoms: _329  and  _332
REMARK  135  A    between atoms: _332  and  _333
REMARK  136  A    between atoms: _336  and  _338
REMARK  137  A    between atoms: _338  and  _339
REMARK  138  A    between atoms: _338  and  _341
REMARK  139  A    between atoms: _341  and  _342
REMARK  140  A    between atoms: _345  and  _347
REMARK  141  A    between atoms: _347  and  _348
REMARK  142  A    between atoms: _347  and  _350
REMARK  143  A    between atoms: _353  and  _355
REMARK  144  A    between atoms: _355  and  _356
REMARK  145  A    between atoms: _355  and  _358
REMARK  146  A    between atoms: _358  and  _359
REMARK  147  A    between atoms: _359  and  _360
REMARK  148  A    between atoms: _360  and  _361
REMARK  149  A    between atoms: _361  and  _362
REMARK  150  A    between atoms: _366  and  _368
REMARK  151  A    between atoms: _368  and  _369
REMARK  152  A    between atoms: _368  and  _371
REMARK  153  A    between atoms: _371  and  _372
REMARK  154  A    between atoms: _372  and  _373
REMARK  155  A    between atoms: _375  and  _377
REMARK  156  A    between atoms: _377  and  _378
REMARK  157  A    between atoms: _377  and  _380
REMARK  158  A    between atoms: _380  and  _381
REMARK  159  A    between atoms: _384  and  _386
REMARK  160  A    between atoms: _386  and  _387
REMARK  161  A    between atoms: _389  and  _391
REMARK  162  A    between atoms: _391  and  _392
REMARK  163  A    between atoms: _394  and  _396
REMARK  164  A    between atoms: _396  and  _397
REMARK  165  A    between atoms: _396  and  _399
REMARK  166  A    between atoms: _399  and  _400
REMARK  167  A    between atoms: _403  and  _405
REMARK  168  A    between atoms: _405  and  _406
REMARK  169  A    between atoms: _408  and  _410
REMARK  170  A    between atoms: _410  and  _411
REMARK  171  A    between atoms: _413  and  _415
REMARK  172  A    between atoms: _415  and  _416
REMARK  173  A    between atoms: _415  and  _418
REMARK  174  A    between atoms: _418  and  _419
REMARK  175  A    between atoms: _425  and  _427
REMARK  176  A    between atoms: _427  and  _428
REMARK  177  A    between atoms: _427  and  _430
REMARK  178  A    between atoms: _430  and  _431
REMARK  179  A    between atoms: _434  and  _436
REMARK  180  A    between atoms: _436  and  _437
REMARK  181  A    between atoms: _436  and  _439
REMARK  182  A    between atoms: _442  and  _444
REMARK  183  A    between atoms: _444  and  _445
REMARK  184  A    between atoms: _444  and  _447
REMARK  185  A    between atoms: _447  and  _448
REMARK  186  A    between atoms: _451  and  _453
REMARK  187  A    between atoms: _453  and  _454
REMARK  188  A    between atoms: _453  and  _456
REMARK  189  A    between atoms: _456  and  _457
REMARK  190  A    between atoms: _461  and  _462
REMARK  191  A    between atoms: _467  and  _469
REMARK  192  A    between atoms: _469  and  _470
REMARK  193  A    between atoms: _469  and  _472
REMARK  194  A    between atoms: _475  and  _477
REMARK  195  A    between atoms: _477  and  _478
REMARK  196  A    between atoms: _477  and  _480
REMARK  197  A    between atoms: _480  and  _481
REMARK  198  A    between atoms: _486  and  _488
REMARK  199  A    between atoms: _488  and  _489
REMARK  200  A    between atoms: _488  and  _491
REMARK  201  A    between atoms: _491  and  _492
REMARK  202  A    between atoms: _495  and  _497
REMARK  203  A    between atoms: _497  and  _498
REMARK  204  A    between atoms: _497  and  _500
REMARK  205  A    between atoms: _500  and  _501
REMARK  206  A    between atoms: _504  and  _506
REMARK  207  A    between atoms: _506  and  _507
REMARK  208  A    between atoms: _509  and  _511
REMARK  209  A    between atoms: _511  and  _512
REMARK  210  A    between atoms: _511  and  _514
REMARK  211  A    between atoms: _514  and  _515
REMARK  212  A    between atoms: _515  and  _516
REMARK  213  A    between atoms: _516  and  _517
REMARK  214  A    between atoms: _526  and  _528
REMARK  215  A    between atoms: _528  and  _529
REMARK  216  A    between atoms: _528  and  _531
REMARK  217  A    between atoms: _531  and  _532
REMARK                            x       y       z     vdW  Elec       q    Type
REMARK                         _______ _______ _______ _____ _____    ______ ____
ROOT
ATOM      1  O   HOH     1      10.625   9.028  10.826  0.00  0.00    +0.000 OA
ENDROOT
TORSDOF 0
REMARK  Name = ../refined-set-2016/1z1h/1z1h_pocket.pdb
REMARK  217 active torsions:
REMARK  status: ('A' for Active; 'I' for Inactive)
REMARK    1  A    between atoms: _1  and  _3
REMARK    2  A    between atoms: _3  and  _4
REMARK    3  A    between atoms: _3  and  _6
REMARK    4  A    between atoms: _6  and  _7
REMARK    5  A    between atoms: _7  and  _8
REMARK    6  A    between atoms: _8  and  _9
REMARK    7  A    between atoms: _18  and  _20
REMARK    8  A    between atoms: _20  and  _21
REMARK    9  A    between atoms: _20  and  _23
REMARK   10  A    between atoms: _23  and  _24
REMARK   11  A    between atoms: _27  and  _29
REMARK   12  A    between atoms: _29  and  _30
REMARK   13  A    between atoms: _29  and  _32
REMARK   14  A    between atoms: _32  and  _33
REMARK   15  A    between atoms: _36  and  _38
REMARK   16  A    between atoms: _38  and  _39
REMARK   17  A    between atoms: _38  and  _41
REMARK   18  A    between atoms: _41  and  _42
REMARK   19  A    between atoms: _45  and  _47
REMARK   20  A    between atoms: _47  and  _48
REMARK   21  A    between atoms: _47  and  _50
REMARK   22  A    between atoms: _50  and  _51
REMARK   23  A    between atoms: _54  and  _56
REMARK   24  A    between atoms: _56  and  _57
REMARK   25  A    between atoms: _59  and  _61
REMARK   26  A    between atoms: _61  and  _62
REMARK   27  A    between atoms: _65  and  _67
REMARK   28  A    between atoms: _67  and  _68
REMARK   29  A    between atoms: _67  and  _70
REMARK   30  A    between atoms: _70  and  _71
REMARK   31  A    between atoms: _74  and  _76
REMARK   32  A    between atoms: _76  and  _77
REMARK   33  A    between atoms: _76  and  _79
REMARK   34  A    between atoms: _79  and  _80
REMARK   35  A    between atoms: _83  and  _85
REMARK   36  A    between atoms: _85  and  _86
REMARK   37  A    between atoms: _85  and  _88
REMARK   38  A    between atoms: _88  and  _89
REMARK   39  A    between atoms: _92  and  _94
REMARK   40  A    between atoms: _94  and  _95
REMARK   41  A    between atoms: _94  and  _97
REMARK   42  A    between atoms: _100  and  _102
REMARK   43  A    between atoms: _102  and  _103
REMARK   44  A    between atoms: _102  and  _105
REMARK   45  A    between atoms: _105  and  _106
REMARK   46  A    between atoms: _109  and  _111
REMARK   47  A    between atoms: _111  and  _112
REMARK   48  A    between atoms: _114  and  _116
REMARK   49  A    between atoms: _116  and  _117
REMARK   50  A    between atoms: _119  and  _121
REMARK   51  A    between atoms: _121  and  _122
REMARK   52  A    between atoms: _121  and  _124
REMARK   53  A    between atoms: _124  and  _125
REMARK   54  A    between atoms: _128  and  _130
REMARK   55  A    between atoms: _130  and  _131
REMARK   56  A    between atoms: _133  and  _135
REMARK   57  A    between atoms: _135  and  _136
REMARK   58  A    between atoms: _138  and  _140
REMARK   59  A    between atoms: _140  and  _141
REMARK   60  A    between atoms: _140  and  _143
REMARK   61  A    between atoms: _143  and  _144
REMARK   62  A    between atoms: _150  and  _152
REMARK   63  A    between atoms: _152  and  _153
REMARK   64  A    between atoms: _152  and  _155
REMARK   65  A    between atoms: _155  and  _156
REMARK   66  A    between atoms: _159  and  _161
REMARK   67  A    between atoms: _161  and  _162
REMARK   68  A    between atoms: _161  and  _164
REMARK   69  A    between atoms: _164  and  _165
REMARK   70  A    between atoms: _168  and  _170
REMARK   71  A    between atoms: _170  and  _171
REMARK   72  A    between atoms: _170  and  _173
REMARK   73  A    between atoms: _173  and  _174
REMARK   74  A    between atoms: _178  and  _179
REMARK   75  A    between atoms: _184  and  _186
REMARK   76  A    between atoms: _186  and  _187
REMARK   77  A    between atoms: _186  and  _189
REMARK   78  A    between atoms: _192  and  _194
REMARK   79  A    between atoms: _194  and  _195
REMARK   80  A    between atoms: _194  and  _197
REMARK   81  A    between atoms: _197  and  _198
REMARK   82  A    between atoms: _203  and  _205
REMARK   83  A    between atoms: _205  and  _206
REMARK   84  A    between atoms: _205  and  _208
REMARK   85  A    between atoms: _208  and  _209
REMARK   86  A    between atoms: _212  and  _214
REMARK   87  A    between atoms: _214  and  _215
REMARK   88  A    between atoms: _214  and  _217
REMARK   89  A    between atoms: _217  and  _218
REMARK   90  A    between atoms: _221  and  _223
REMARK   91  A    between atoms: _223  and  _224
REMARK   92  A    between atoms: _226  and  _228
REMARK   93  A    between atoms: _228  and  _229
REMARK   94  A    between atoms: _228  and  _231
REMARK   95  A    between atoms: _231  and  _232
REMARK   96  A    between atoms: _232  and  _233
REMARK   97  A    between atoms: _233  and  _234
REMARK   98  A    between atoms: _243  and  _245
REMARK   99  A    between atoms: _245  and  _246
REMARK  100  A    between atoms: _245  and  _248
REMARK  101  A    between atoms: _248  and  _249
REMARK  102  A    between atoms: _254  and  _256
REMARK  103  A    between atoms: _256  and  _257
REMARK  104  A    between atoms: _256  and  _259
REMARK  105  A    between atoms: _259  and  _260
REMARK  106  A    between atoms: _260  and  _261
REMARK  107  A    between atoms: _261  and  _262
REMARK  108  A    between atoms: _271  and  _273
REMARK  109  A    between atoms: _273  and  _274
REMARK  110  A    between atoms: _273  and  _276
REMARK  111  A    between atoms: _276  and  _277
REMARK  112  A    between atoms: _280  and  _282
REMARK  113  A    between atoms: _282  and  _283
REMARK  114  A    between atoms: _282  and  _285
REMARK  115  A    between atoms: _285  and  _286
REMARK  116  A    between atoms: _289  and  _291
REMARK  117  A    between atoms: _291  and  _292
REMARK  118  A    between atoms: _291  and  _294
REMARK  119  A    between atoms: _294  and  _295
REMARK  120  A    between atoms: _298  and  _300
REMARK  121  A    between atoms: _300  and  _301
REMARK  122  A    between atoms: _300  and  _303
REMARK  123  A    between atoms: _303  and  _304
REMARK  124  A    between atoms: _307  and  _309
REMARK  125  A    between atoms: _309  and  _310
REMARK  126  A    between atoms: _312  and  _314
REMARK  127  A    between atoms: _314  and  _315
REMARK  128  A    between atoms: _318  and  _320
REMARK  129  A    between atoms: _320  and  _321
REMARK  130  A    between atoms: _320  and  _323
REMARK  131  A    between atoms: _323  and  _324
REMARK  132  A    between atoms: _327  and  _329
REMARK  133  A    between atoms: _329  and  _330
REMARK  134  A    between atoms: _329  and  _332
REMARK  135  A    between atoms: _332  and  _333
REMARK  136  A    between atoms: _336  and  _338
REMARK  137  A    between atoms: _338  and  _339
REMARK  138  A    between atoms: _338  and  _341
REMARK  139  A    between atoms: _341  and  _342
REMARK  140  A    between atoms: _345  and  _347
REMARK  141  A    between atoms: _347  and  _348
REMARK  142  A    between atoms: _347  and  _350
REMARK  143  A    between atoms: _353  and  _355
REMARK  144  A    between atoms: _355  and  _356
REMARK  145  A    between atoms: _355  and  _358
REMARK  146  A    between atoms: _358  and  _359
REMARK  147  A    between atoms: _359  and  _360
REMARK  148  A    between atoms: _360  and  _361
REMARK  149  A    between atoms: _361  and  _362
REMARK  150  A    between atoms: _366  and  _368
REMARK  151  A    between atoms: _368  and  _369
REMARK  152  A    between atoms: _368  and  _371
REMARK  153  A    between atoms: _371  and  _372
REMARK  154  A    between atoms: _372  and  _373
REMARK  155  A    between atoms: _375  and  _377
REMARK  156  A    between atoms: _377  and  _378
REMARK  157  A    between atoms: _377  and  _380
REMARK  158  A    between atoms: _380  and  _381
REMARK  159  A    between atoms: _384  and  _386
REMARK  160  A    between atoms: _386  and  _387
REMARK  161  A    between atoms: _389  and  _391
REMARK  162  A    between atoms: _391  and  _392
REMARK  163  A    between atoms: _394  and  _396
REMARK  164  A    between atoms: _396  and  _397
REMARK  165  A    between atoms: _396  and  _399
REMARK  166  A    between atoms: _399  and  _400
REMARK  167  A    between atoms: _403  and  _405
REMARK  168  A    between atoms: _405  and  _406
REMARK  169  A    between atoms: _408  and  _410
REMARK  170  A    between atoms: _410  and  _411
REMARK  171  A    between atoms: _413  and  _415
REMARK  172  A    between atoms: _415  and  _416
REMARK  173  A    between atoms: _415  and  _418
REMARK  174  A    between atoms: _418  and  _419
REMARK  175  A    between atoms: _425  and  _427
REMARK  176  A    between atoms: _427  and  _428
REMARK  177  A    between atoms: _427  and  _430
REMARK  178  A    between atoms: _430  and  _431
REMARK  179  A    between atoms: _434  and  _436
REMARK  180  A    between atoms: _436  and  _437
REMARK  181  A    between atoms: _436  and  _439
REMARK  182  A    between atoms: _442  and  _444
REMARK  183  A    between atoms: _444  and  _445
REMARK  184  A    between atoms: _444  and  _447
REMARK  185  A    between atoms: _447  and  _448
REMARK  186  A    between atoms: _451  and  _453
REMARK  187  A    between atoms: _453  and  _454
REMARK  188  A    between atoms: _453  and  _456
REMARK  189  A    between atoms: _456  and  _457
REMARK  190  A    between atoms: _461  and  _462
REMARK  191  A    between atoms: _467  and  _469
REMARK  192  A    between atoms: _469  and  _470
REMARK  193  A    between atoms: _469  and  _472
REMARK  194  A    between atoms: _475  and  _477
REMARK  195  A    between atoms: _477  and  _478
REMARK  196  A    between atoms: _477  and  _480
REMARK  197  A    between atoms: _480  and  _481
REMARK  198  A    between atoms: _486  and  _488
REMARK  199  A    between atoms: _488  and  _489
REMARK  200  A    between atoms: _488  and  _491
REMARK  201  A    between atoms: _491  and  _492
REMARK  202  A    between atoms: _495  and  _497
REMARK  203  A    between atoms: _497  and  _498
REMARK  204  A    between atoms: _497  and  _500
REMARK  205  A    between atoms: _500  and  _501
REMARK  206  A    between atoms: _504  and  _506
REMARK  207  A    between atoms: _506  and  _507
REMARK  208  A    between atoms: _509  and  _511
REMARK  209  A    between atoms: _511  and  _512
REMARK  210  A    between atoms: _511  and  _514
REMARK  211  A    between atoms: _514  and  _515
REMARK  212  A    between atoms: _515  and  _516
REMARK  213  A    between atoms: _516  and  _517
REMARK  214  A    between atoms: _526  and  _528
REMARK  215  A    between atoms: _528  and  _529
REMARK  216  A    between atoms: _528  and  _531
REMARK  217  A    between atoms: _531  and  _532
REMARK                            x       y       z     vdW  Elec       q    Type
REMARK                         _______ _______ _______ _____ _____    ______ ____
ROOT
ATOM      1  O   HOH     1       8.170 -10.917  16.477  0.00  0.00    +0.000 OA
ENDROOT
TORSDOF 0
REMARK  Name = ../refined-set-2016/1z1h/1z1h_pocket.pdb
REMARK  217 active torsions:
REMARK  status: ('A' for Active; 'I' for Inactive)
REMARK    1  A    between atoms: _1  and  _3
REMARK    2  A    between atoms: _3  and  _4
REMARK    3  A    between atoms: _3  and  _6
REMARK    4  A    between atoms: _6  and  _7
REMARK    5  A    between atoms: _7  and  _8
REMARK    6  A    between atoms: _8  and  _9
REMARK    7  A    between atoms: _18  and  _20
REMARK    8  A    between atoms: _20  and  _21
REMARK    9  A    between atoms: _20  and  _23
REMARK   10  A    between atoms: _23  and  _24
REMARK   11  A    between atoms: _27  and  _29
REMARK   12  A    between atoms: _29  and  _30
REMARK   13  A    between atoms: _29  and  _32
REMARK   14  A    between atoms: _32  and  _33
REMARK   15  A    between atoms: _36  and  _38
REMARK   16  A    between atoms: _38  and  _39
REMARK   17  A    between atoms: _38  and  _41
REMARK   18  A    between atoms: _41  and  _42
REMARK   19  A    between atoms: _45  and  _47
REMARK   20  A    between atoms: _47  and  _48
REMARK   21  A    between atoms: _47  and  _50
REMARK   22  A    between atoms: _50  and  _51
REMARK   23  A    between atoms: _54  and  _56
REMARK   24  A    between atoms: _56  and  _57
REMARK   25  A    between atoms: _59  and  _61
REMARK   26  A    between atoms: _61  and  _62
REMARK   27  A    between atoms: _65  and  _67
REMARK   28  A    between atoms: _67  and  _68
REMARK   29  A    between atoms: _67  and  _70
REMARK   30  A    between atoms: _70  and  _71
REMARK   31  A    between atoms: _74  and  _76
REMARK   32  A    between atoms: _76  and  _77
REMARK   33  A    between atoms: _76  and  _79
REMARK   34  A    between atoms: _79  and  _80
REMARK   35  A    between atoms: _83  and  _85
REMARK   36  A    between atoms: _85  and  _86
REMARK   37  A    between atoms: _85  and  _88
REMARK   38  A    between atoms: _88  and  _89
REMARK   39  A    between atoms: _92  and  _94
REMARK   40  A    between atoms: _94  and  _95
REMARK   41  A    between atoms: _94  and  _97
REMARK   42  A    between atoms: _100  and  _102
REMARK   43  A    between atoms: _102  and  _103
REMARK   44  A    between atoms: _102  and  _105
REMARK   45  A    between atoms: _105  and  _106
REMARK   46  A    between atoms: _109  and  _111
REMARK   47  A    between atoms: _111  and  _112
REMARK   48  A    between atoms: _114  and  _116
REMARK   49  A    between atoms: _116  and  _117
REMARK   50  A    between atoms: _119  and  _121
REMARK   51  A    between atoms: _121  and  _122
REMARK   52  A    between atoms: _121  and  _124
REMARK   53  A    between atoms: _124  and  _125
REMARK   54  A    between atoms: _128  and  _130
REMARK   55  A    between atoms: _130  and  _131
REMARK   56  A    between atoms: _133  and  _135
REMARK   57  A    between atoms: _135  and  _136
REMARK   58  A    between atoms: _138  and  _140
REMARK   59  A    between atoms: _140  and  _141
REMARK   60  A    between atoms: _140  and  _143
REMARK   61  A    between atoms: _143  and  _144
REMARK   62  A    between atoms: _150  and  _152
REMARK   63  A    between atoms: _152  and  _153
REMARK   64  A    between atoms: _152  and  _155
REMARK   65  A    between atoms: _155  and  _156
REMARK   66  A    between atoms: _159  and  _161
REMARK   67  A    between atoms: _161  and  _162
REMARK   68  A    between atoms: _161  and  _164
REMARK   69  A    between atoms: _164  and  _165
REMARK   70  A    between atoms: _168  and  _170
REMARK   71  A    between atoms: _170  and  _171
REMARK   72  A    between atoms: _170  and  _173
REMARK   73  A    between atoms: _173  and  _174
REMARK   74  A    between atoms: _178  and  _179
REMARK   75  A    between atoms: _184  and  _186
REMARK   76  A    between atoms: _186  and  _187
REMARK   77  A    between atoms: _186  and  _189
REMARK   78  A    between atoms: _192  and  _194
REMARK   79  A    between atoms: _194  and  _195
REMARK   80  A    between atoms: _194  and  _197
REMARK   81  A    between atoms: _197  and  _198
REMARK   82  A    between atoms: _203  and  _205
REMARK   83  A    between atoms: _205  and  _206
REMARK   84  A    between atoms: _205  and  _208
REMARK   85  A    between atoms: _208  and  _209
REMARK   86  A    between atoms: _212  and  _214
REMARK   87  A    between atoms: _214  and  _215
REMARK   88  A    between atoms: _214  and  _217
REMARK   89  A    between atoms: _217  and  _218
REMARK   90  A    between atoms: _221  and  _223
REMARK   91  A    between atoms: _223  and  _224
REMARK   92  A    between atoms: _226  and  _228
REMARK   93  A    between atoms: _228  and  _229
REMARK   94  A    between atoms: _228  and  _231
REMARK   95  A    between atoms: _231  and  _232
REMARK   96  A    between atoms: _232  and  _233
REMARK   97  A    between atoms: _233  and  _234
REMARK   98  A    between atoms: _243  and  _245
REMARK   99  A    between atoms: _245  and  _246
REMARK  100  A    between atoms: _245  and  _248
REMARK  101  A    between atoms: _248  and  _249
REMARK  102  A    between atoms: _254  and  _256
REMARK  103  A    between atoms: _256  and  _257
REMARK  104  A    between atoms: _256  and  _259
REMARK  105  A    between atoms: _259  and  _260
REMARK  106  A    between atoms: _260  and  _261
REMARK  107  A    between atoms: _261  and  _262
REMARK  108  A    between atoms: _271  and  _273
REMARK  109  A    between atoms: _273  and  _274
REMARK  110  A    between atoms: _273  and  _276
REMARK  111  A    between atoms: _276  and  _277
REMARK  112  A    between atoms: _280  and  _282
REMARK  113  A    between atoms: _282  and  _283
REMARK  114  A    between atoms: _282  and  _285
REMARK  115  A    between atoms: _285  and  _286
REMARK  116  A    between atoms: _289  and  _291
REMARK  117  A    between atoms: _291  and  _292
REMARK  118  A    between atoms: _291  and  _294
REMARK  119  A    between atoms: _294  and  _295
REMARK  120  A    between atoms: _298  and  _300
REMARK  121  A    between atoms: _300  and  _301
REMARK  122  A    between atoms: _300  and  _303
REMARK  123  A    between atoms: _303  and  _304
REMARK  124  A    between atoms: _307  and  _309
REMARK  125  A    between atoms: _309  and  _310
REMARK  126  A    between atoms: _312  and  _314
REMARK  127  A    between atoms: _314  and  _315
REMARK  128  A    between atoms: _318  and  _320
REMARK  129  A    between atoms: _320  and  _321
REMARK  130  A    between atoms: _320  and  _323
REMARK  131  A    between atoms: _323  and  _324
REMARK  132  A    between atoms: _327  and  _329
REMARK  133  A    between atoms: _329  and  _330
REMARK  134  A    between atoms: _329  and  _332
REMARK  135  A    between atoms: _332  and  _333
REMARK  136  A    between atoms: _336  and  _338
REMARK  137  A    between atoms: _338  and  _339
REMARK  138  A    between atoms: _338  and  _341
REMARK  139  A    between atoms: _341  and  _342
REMARK  140  A    between atoms: _345  and  _347
REMARK  141  A    between atoms: _347  and  _348
REMARK  142  A    between atoms: _347  and  _350
REMARK  143  A    between atoms: _353  and  _355
REMARK  144  A    between atoms: _355  and  _356
REMARK  145  A    between atoms: _355  and  _358
REMARK  146  A    between atoms: _358  and  _359
REMARK  147  A    between atoms: _359  and  _360
REMARK  148  A    between atoms: _360  and  _361
REMARK  149  A    between atoms: _361  and  _362
REMARK  150  A    between atoms: _366  and  _368
REMARK  151  A    between atoms: _368  and  _369
REMARK  152  A    between atoms: _368  and  _371
REMARK  153  A    between atoms: _371  and  _372
REMARK  154  A    between atoms: _372  and  _373
REMARK  155  A    between atoms: _375  and  _377
REMARK  156  A    between atoms: _377  and  _378
REMARK  157  A    between atoms: _377  and  _380
REMARK  158  A    between atoms: _380  and  _381
REMARK  159  A    between atoms: _384  and  _386
REMARK  160  A    between atoms: _386  and  _387
REMARK  161  A    between atoms: _389  and  _391
REMARK  162  A    between atoms: _391  and  _392
REMARK  163  A    between atoms: _394  and  _396
REMARK  164  A    between atoms: _396  and  _397
REMARK  165  A    between atoms: _396  and  _399
REMARK  166  A    between atoms: _399  and  _400
REMARK  167  A    between atoms: _403  and  _405
REMARK  168  A    between atoms: _405  and  _406
REMARK  169  A    between atoms: _408  and  _410
REMARK  170  A    between atoms: _410  and  _411
REMARK  171  A    between atoms: _413  and  _415
REMARK  172  A    between atoms: _415  and  _416
REMARK  173  A    between atoms: _415  and  _418
REMARK  174  A    between atoms: _418  and  _419
REMARK  175  A    between atoms: _425  and  _427
REMARK  176  A    between atoms: _427  and  _428
REMARK  177  A    between atoms: _427  and  _430
REMARK  178  A    between atoms: _430  and  _431
REMARK  179  A    between atoms: _434  and  _436
REMARK  180  A    between atoms: _436  and  _437
REMARK  181  A    between atoms: _436  and  _439
REMARK  182  A    between atoms: _442  and  _444
REMARK  183  A    between atoms: _444  and  _445
REMARK  184  A    between atoms: _444  and  _447
REMARK  185  A    between atoms: _447  and  _448
REMARK  186  A    between atoms: _451  and  _453
REMARK  187  A    between atoms: _453  and  _454
REMARK  188  A    between atoms: _453  and  _456
REMARK  189  A    between atoms: _456  and  _457
REMARK  190  A    between atoms: _461  and  _462
REMARK  191  A    between atoms: _467  and  _469
REMARK  192  A    between atoms: _469  and  _470
REMARK  193  A    between atoms: _469  and  _472
REMARK  194  A    between atoms: _475  and  _477
REMARK  195  A    between atoms: _477  and  _478
REMARK  196  A    between atoms: _477  and  _480
REMARK  197  A    between atoms: _480  and  _481
REMARK  198  A    between atoms: _486  and  _488
REMARK  199  A    between atoms: _488  and  _489
REMARK  200  A    between atoms: _488  and  _491
REMARK  201  A    between atoms: _491  and  _492
REMARK  202  A    between atoms: _495  and  _497
REMARK  203  A    between atoms: _497  and  _498
REMARK  204  A    between atoms: _497  and  _500
REMARK  205  A    between atoms: _500  and  _501
REMARK  206  A    between atoms: _504  and  _506
REMARK  207  A    between atoms: _506  and  _507
REMARK  208  A    between atoms: _509  and  _511
REMARK  209  A    between atoms: _511  and  _512
REMARK  210  A    between atoms: _511  and  _514
REMARK  211  A    between atoms: _514  and  _515
REMARK  212  A    between atoms: _515  and  _516
REMARK  213  A    between atoms: _516  and  _517
REMARK  214  A    between atoms: _526  and  _528
REMARK  215  A    between atoms: _528  and  _529
REMARK  216  A    between atoms: _528  and  _531
REMARK  217  A    between atoms: _531  and  _532
REMARK                            x       y       z     vdW  Elec       q    Type
REMARK                         _______ _______ _______ _____ _____    ______ ____
ROOT
ATOM      1  O   HOH     1       7.106  -6.059  18.933  0.00  0.00    +0.000 OA
ENDROOT
TORSDOF 0
REMARK  Name = ../refined-set-2016/1z1h/1z1h_pocket.pdb
REMARK  217 active torsions:
REMARK  status: ('A' for Active; 'I' for Inactive)
REMARK    1  A    between atoms: _1  and  _3
REMARK    2  A    between atoms: _3  and  _4
REMARK    3  A    between atoms: _3  and  _6
REMARK    4  A    between atoms: _6  and  _7
REMARK    5  A    between atoms: _7  and  _8
REMARK    6  A    between atoms: _8  and  _9
REMARK    7  A    between atoms: _18  and  _20
REMARK    8  A    between atoms: _20  and  _21
REMARK    9  A    between atoms: _20  and  _23
REMARK   10  A    between atoms: _23  and  _24
REMARK   11  A    between atoms: _27  and  _29
REMARK   12  A    between atoms: _29  and  _30
REMARK   13  A    between atoms: _29  and  _32
REMARK   14  A    between atoms: _32  and  _33
REMARK   15  A    between atoms: _36  and  _38
REMARK   16  A    between atoms: _38  and  _39
REMARK   17  A    between atoms: _38  and  _41
REMARK   18  A    between atoms: _41  and  _42
REMARK   19  A    between atoms: _45  and  _47
REMARK   20  A    between atoms: _47  and  _48
REMARK   21  A    between atoms: _47  and  _50
REMARK   22  A    between atoms: _50  and  _51
REMARK   23  A    between atoms: _54  and  _56
REMARK   24  A    between atoms: _56  and  _57
REMARK   25  A    between atoms: _59  and  _61
REMARK   26  A    between atoms: _61  and  _62
REMARK   27  A    between atoms: _65  and  _67
REMARK   28  A    between atoms: _67  and  _68
REMARK   29  A    between atoms: _67  and  _70
REMARK   30  A    between atoms: _70  and  _71
REMARK   31  A    between atoms: _74  and  _76
REMARK   32  A    between atoms: _76  and  _77
REMARK   33  A    between atoms: _76  and  _79
REMARK   34  A    between atoms: _79  and  _80
REMARK   35  A    between atoms: _83  and  _85
REMARK   36  A    between atoms: _85  and  _86
REMARK   37  A    between atoms: _85  and  _88
REMARK   38  A    between atoms: _88  and  _89
REMARK   39  A    between atoms: _92  and  _94
REMARK   40  A    between atoms: _94  and  _95
REMARK   41  A    between atoms: _94  and  _97
REMARK   42  A    between atoms: _100  and  _102
REMARK   43  A    between atoms: _102  and  _103
REMARK   44  A    between atoms: _102  and  _105
REMARK   45  A    between atoms: _105  and  _106
REMARK   46  A    between atoms: _109  and  _111
REMARK   47  A    between atoms: _111  and  _112
REMARK   48  A    between atoms: _114  and  _116
REMARK   49  A    between atoms: _116  and  _117
REMARK   50  A    between atoms: _119  and  _121
REMARK   51  A    between atoms: _121  and  _122
REMARK   52  A    between atoms: _121  and  _124
REMARK   53  A    between atoms: _124  and  _125
REMARK   54  A    between atoms: _128  and  _130
REMARK   55  A    between atoms: _130  and  _131
REMARK   56  A    between atoms: _133  and  _135
REMARK   57  A    between atoms: _135  and  _136
REMARK   58  A    between atoms: _138  and  _140
REMARK   59  A    between atoms: _140  and  _141
REMARK   60  A    between atoms: _140  and  _143
REMARK   61  A    between atoms: _143  and  _144
REMARK   62  A    between atoms: _150  and  _152
REMARK   63  A    between atoms: _152  and  _153
REMARK   64  A    between atoms: _152  and  _155
REMARK   65  A    between atoms: _155  and  _156
REMARK   66  A    between atoms: _159  and  _161
REMARK   67  A    between atoms: _161  and  _162
REMARK   68  A    between atoms: _161  and  _164
REMARK   69  A    between atoms: _164  and  _165
REMARK   70  A    between atoms: _168  and  _170
REMARK   71  A    between atoms: _170  and  _171
REMARK   72  A    between atoms: _170  and  _173
REMARK   73  A    between atoms: _173  and  _174
REMARK   74  A    between atoms: _178  and  _179
REMARK   75  A    between atoms: _184  and  _186
REMARK   76  A    between atoms: _186  and  _187
REMARK   77  A    between atoms: _186  and  _189
REMARK   78  A    between atoms: _192  and  _194
REMARK   79  A    between atoms: _194  and  _195
REMARK   80  A    between atoms: _194  and  _197
REMARK   81  A    between atoms: _197  and  _198
REMARK   82  A    between atoms: _203  and  _205
REMARK   83  A    between atoms: _205  and  _206
REMARK   84  A    between atoms: _205  and  _208
REMARK   85  A    between atoms: _208  and  _209
REMARK   86  A    between atoms: _212  and  _214
REMARK   87  A    between atoms: _214  and  _215
REMARK   88  A    between atoms: _214  and  _217
REMARK   89  A    between atoms: _217  and  _218
REMARK   90  A    between atoms: _221  and  _223
REMARK   91  A    between atoms: _223  and  _224
REMARK   92  A    between atoms: _226  and  _228
REMARK   93  A    between atoms: _228  and  _229
REMARK   94  A    between atoms: _228  and  _231
REMARK   95  A    between atoms: _231  and  _232
REMARK   96  A    between atoms: _232  and  _233
REMARK   97  A    between atoms: _233  and  _234
REMARK   98  A    between atoms: _243  and  _245
REMARK   99  A    between atoms: _245  and  _246
REMARK  100  A    between atoms: _245  and  _248
REMARK  101  A    between atoms: _248  and  _249
REMARK  102  A    between atoms: _254  and  _256
REMARK  103  A    between atoms: _256  and  _257
REMARK  104  A    between atoms: _256  and  _259
REMARK  105  A    between atoms: _259  and  _260
REMARK  106  A    between atoms: _260  and  _261
REMARK  107  A    between atoms: _261  and  _262
REMARK  108  A    between atoms: _271  and  _273
REMARK  109  A    between atoms: _273  and  _274
REMARK  110  A    between atoms: _273  and  _276
REMARK  111  A    between atoms: _276  and  _277
REMARK  112  A    between atoms: _280  and  _282
REMARK  113  A    between atoms: _282  and  _283
REMARK  114  A    between atoms: _282  and  _285
REMARK  115  A    between atoms: _285  and  _286
REMARK  116  A    between atoms: _289  and  _291
REMARK  117  A    between atoms: _291  and  _292
REMARK  118  A    between atoms: _291  and  _294
REMARK  119  A    between atoms: _294  and  _295
REMARK  120  A    between atoms: _298  and  _300
REMARK  121  A    between atoms: _300  and  _301
REMARK  122  A    between atoms: _300  and  _303
REMARK  123  A    between atoms: _303  and  _304
REMARK  124  A    between atoms: _307  and  _309
REMARK  125  A    between atoms: _309  and  _310
REMARK  126  A    between atoms: _312  and  _314
REMARK  127  A    between atoms: _314  and  _315
REMARK  128  A    between atoms: _318  and  _320
REMARK  129  A    between atoms: _320  and  _321
REMARK  130  A    between atoms: _320  and  _323
REMARK  131  A    between atoms: _323  and  _324
REMARK  132  A    between atoms: _327  and  _329
REMARK  133  A    between atoms: _329  and  _330
REMARK  134  A    between atoms: _329  and  _332
REMARK  135  A    between atoms: _332  and  _333
REMARK  136  A    between atoms: _336  and  _338
REMARK  137  A    between atoms: _338  and  _339
REMARK  138  A    between atoms: _338  and  _341
REMARK  139  A    between atoms: _341  and  _342
REMARK  140  A    between atoms: _345  and  _347
REMARK  141  A    between atoms: _347  and  _348
REMARK  142  A    between atoms: _347  and  _350
REMARK  143  A    between atoms: _353  and  _355
REMARK  144  A    between atoms: _355  and  _356
REMARK  145  A    between atoms: _355  and  _358
REMARK  146  A    between atoms: _358  and  _359
REMARK  147  A    between atoms: _359  and  _360
REMARK  148  A    between atoms: _360  and  _361
REMARK  149  A    between atoms: _361  and  _362
REMARK  150  A    between atoms: _366  and  _368
REMARK  151  A    between atoms: _368  and  _369
REMARK  152  A    between atoms: _368  and  _371
REMARK  153  A    between atoms: _371  and  _372
REMARK  154  A    between atoms: _372  and  _373
REMARK  155  A    between atoms: _375  and  _377
REMARK  156  A    between atoms: _377  and  _378
REMARK  157  A    between atoms: _377  and  _380
REMARK  158  A    between atoms: _380  and  _381
REMARK  159  A    between atoms: _384  and  _386
REMARK  160  A    between atoms: _386  and  _387
REMARK  161  A    between atoms: _389  and  _391
REMARK  162  A    between atoms: _391  and  _392
REMARK  163  A    between atoms: _394  and  _396
REMARK  164  A    between atoms: _396  and  _397
REMARK  165  A    between atoms: _396  and  _399
REMARK  166  A    between atoms: _399  and  _400
REMARK  167  A    between atoms: _403  and  _405
REMARK  168  A    between atoms: _405  and  _406
REMARK  169  A    between atoms: _408  and  _410
REMARK  170  A    between atoms: _410  and  _411
REMARK  171  A    between atoms: _413  and  _415
REMARK  172  A    between atoms: _415  and  _416
REMARK  173  A    between atoms: _415  and  _418
REMARK  174  A    between atoms: _418  and  _419
REMARK  175  A    between atoms: _425  and  _427
REMARK  176  A    between atoms: _427  and  _428
REMARK  177  A    between atoms: _427  and  _430
REMARK  178  A    between atoms: _430  and  _431
REMARK  179  A    between atoms: _434  and  _436
REMARK  180  A    between atoms: _436  and  _437
REMARK  181  A    between atoms: _436  and  _439
REMARK  182  A    between atoms: _442  and  _444
REMARK  183  A    between atoms: _444  and  _445
REMARK  184  A    between atoms: _444  and  _447
REMARK  185  A    between atoms: _447  and  _448
REMARK  186  A    between atoms: _451  and  _453
REMARK  187  A    between atoms: _453  and  _454
REMARK  188  A    between atoms: _453  and  _456
REMARK  189  A    between atoms: _456  and  _457
REMARK  190  A    between atoms: _461  and  _462
REMARK  191  A    between atoms: _467  and  _469
REMARK  192  A    between atoms: _469  and  _470
REMARK  193  A    between atoms: _469  and  _472
REMARK  194  A    between atoms: _475  and  _477
REMARK  195  A    between atoms: _477  and  _478
REMARK  196  A    between atoms: _477  and  _480
REMARK  197  A    between atoms: _480  and  _481
REMARK  198  A    between atoms: _486  and  _488
REMARK  199  A    between atoms: _488  and  _489
REMARK  200  A    between atoms: _488  and  _491
REMARK  201  A    between atoms: _491  and  _492
REMARK  202  A    between atoms: _495  and  _497
REMARK  203  A    between atoms: _497  and  _498
REMARK  204  A    between atoms: _497  and  _500
REMARK  205  A    between atoms: _500  and  _501
REMARK  206  A    between atoms: _504  and  _506
REMARK  207  A    between atoms: _506  and  _507
REMARK  208  A    between atoms: _509  and  _511
REMARK  209  A    between atoms: _511  and  _512
REMARK  210  A    between atoms: _511  and  _514
REMARK  211  A    between atoms: _514  and  _515
REMARK  212  A    between atoms: _515  and  _516
REMARK  213  A    between atoms: _516  and  _517
REMARK  214  A    between atoms: _526  and  _528
REMARK  215  A    between atoms: _528  and  _529
REMARK  216  A    between atoms: _528  and  _531
REMARK  217  A    between atoms: _531  and  _532
REMARK                            x       y       z     vdW  Elec       q    Type
REMARK                         _______ _______ _______ _____ _____    ______ ____
ROOT
ATOM      1  O   HOH     1      10.206 -12.671  17.732  0.00  0.00    +0.000 OA
ENDROOT
TORSDOF 0
REMARK  Name = ../refined-set-2016/1z1h/1z1h_pocket.pdb
REMARK  217 active torsions:
REMARK  status: ('A' for Active; 'I' for Inactive)
REMARK    1  A    between atoms: _1  and  _3
REMARK    2  A    between atoms: _3  and  _4
REMARK    3  A    between atoms: _3  and  _6
REMARK    4  A    between atoms: _6  and  _7
REMARK    5  A    between atoms: _7  and  _8
REMARK    6  A    between atoms: _8  and  _9
REMARK    7  A    between atoms: _18  and  _20
REMARK    8  A    between atoms: _20  and  _21
REMARK    9  A    between atoms: _20  and  _23
REMARK   10  A    between atoms: _23  and  _24
REMARK   11  A    between atoms: _27  and  _29
REMARK   12  A    between atoms: _29  and  _30
REMARK   13  A    between atoms: _29  and  _32
REMARK   14  A    between atoms: _32  and  _33
REMARK   15  A    between atoms: _36  and  _38
REMARK   16  A    between atoms: _38  and  _39
REMARK   17  A    between atoms: _38  and  _41
REMARK   18  A    between atoms: _41  and  _42
REMARK   19  A    between atoms: _45  and  _47
REMARK   20  A    between atoms: _47  and  _48
REMARK   21  A    between atoms: _47  and  _50
REMARK   22  A    between atoms: _50  and  _51
REMARK   23  A    between atoms: _54  and  _56
REMARK   24  A    between atoms: _56  and  _57
REMARK   25  A    between atoms: _59  and  _61
REMARK   26  A    between atoms: _61  and  _62
REMARK   27  A    between atoms: _65  and  _67
REMARK   28  A    between atoms: _67  and  _68
REMARK   29  A    between atoms: _67  and  _70
REMARK   30  A    between atoms: _70  and  _71
REMARK   31  A    between atoms: _74  and  _76
REMARK   32  A    between atoms: _76  and  _77
REMARK   33  A    between atoms: _76  and  _79
REMARK   34  A    between atoms: _79  and  _80
REMARK   35  A    between atoms: _83  and  _85
REMARK   36  A    between atoms: _85  and  _86
REMARK   37  A    between atoms: _85  and  _88
REMARK   38  A    between atoms: _88  and  _89
REMARK   39  A    between atoms: _92  and  _94
REMARK   40  A    between atoms: _94  and  _95
REMARK   41  A    between atoms: _94  and  _97
REMARK   42  A    between atoms: _100  and  _102
REMARK   43  A    between atoms: _102  and  _103
REMARK   44  A    between atoms: _102  and  _105
REMARK   45  A    between atoms: _105  and  _106
REMARK   46  A    between atoms: _109  and  _111
REMARK   47  A    between atoms: _111  and  _112
REMARK   48  A    between atoms: _114  and  _116
REMARK   49  A    between atoms: _116  and  _117
REMARK   50  A    between atoms: _119  and  _121
REMARK   51  A    between atoms: _121  and  _122
REMARK   52  A    between atoms: _121  and  _124
REMARK   53  A    between atoms: _124  and  _125
REMARK   54  A    between atoms: _128  and  _130
REMARK   55  A    between atoms: _130  and  _131
REMARK   56  A    between atoms: _133  and  _135
REMARK   57  A    between atoms: _135  and  _136
REMARK   58  A    between atoms: _138  and  _140
REMARK   59  A    between atoms: _140  and  _141
REMARK   60  A    between atoms: _140  and  _143
REMARK   61  A    between atoms: _143  and  _144
REMARK   62  A    between atoms: _150  and  _152
REMARK   63  A    between atoms: _152  and  _153
REMARK   64  A    between atoms: _152  and  _155
REMARK   65  A    between atoms: _155  and  _156
REMARK   66  A    between atoms: _159  and  _161
REMARK   67  A    between atoms: _161  and  _162
REMARK   68  A    between atoms: _161  and  _164
REMARK   69  A    between atoms: _164  and  _165
REMARK   70  A    between atoms: _168  and  _170
REMARK   71  A    between atoms: _170  and  _171
REMARK   72  A    between atoms: _170  and  _173
REMARK   73  A    between atoms: _173  and  _174
REMARK   74  A    between atoms: _178  and  _179
REMARK   75  A    between atoms: _184  and  _186
REMARK   76  A    between atoms: _186  and  _187
REMARK   77  A    between atoms: _186  and  _189
REMARK   78  A    between atoms: _192  and  _194
REMARK   79  A    between atoms: _194  and  _195
REMARK   80  A    between atoms: _194  and  _197
REMARK   81  A    between atoms: _197  and  _198
REMARK   82  A    between atoms: _203  and  _205
REMARK   83  A    between atoms: _205  and  _206
REMARK   84  A    between atoms: _205  and  _208
REMARK   85  A    between atoms: _208  and  _209
REMARK   86  A    between atoms: _212  and  _214
REMARK   87  A    between atoms: _214  and  _215
REMARK   88  A    between atoms: _214  and  _217
REMARK   89  A    between atoms: _217  and  _218
REMARK   90  A    between atoms: _221  and  _223
REMARK   91  A    between atoms: _223  and  _224
REMARK   92  A    between atoms: _226  and  _228
REMARK   93  A    between atoms: _228  and  _229
REMARK   94  A    between atoms: _228  and  _231
REMARK   95  A    between atoms: _231  and  _232
REMARK   96  A    between atoms: _232  and  _233
REMARK   97  A    between atoms: _233  and  _234
REMARK   98  A    between atoms: _243  and  _245
REMARK   99  A    between atoms: _245  and  _246
REMARK  100  A    between atoms: _245  and  _248
REMARK  101  A    between atoms: _248  and  _249
REMARK  102  A    between atoms: _254  and  _256
REMARK  103  A    between atoms: _256  and  _257
REMARK  104  A    between atoms: _256  and  _259
REMARK  105  A    between atoms: _259  and  _260
REMARK  106  A    between atoms: _260  and  _261
REMARK  107  A    between atoms: _261  and  _262
REMARK  108  A    between atoms: _271  and  _273
REMARK  109  A    between atoms: _273  and  _274
REMARK  110  A    between atoms: _273  and  _276
REMARK  111  A    between atoms: _276  and  _277
REMARK  112  A    between atoms: _280  and  _282
REMARK  113  A    between atoms: _282  and  _283
REMARK  114  A    between atoms: _282  and  _285
REMARK  115  A    between atoms: _285  and  _286
REMARK  116  A    between atoms: _289  and  _291
REMARK  117  A    between atoms: _291  and  _292
REMARK  118  A    between atoms: _291  and  _294
REMARK  119  A    between atoms: _294  and  _295
REMARK  120  A    between atoms: _298  and  _300
REMARK  121  A    between atoms: _300  and  _301
REMARK  122  A    between atoms: _300  and  _303
REMARK  123  A    between atoms: _303  and  _304
REMARK  124  A    between atoms: _307  and  _309
REMARK  125  A    between atoms: _309  and  _310
REMARK  126  A    between atoms: _312  and  _314
REMARK  127  A    between atoms: _314  and  _315
REMARK  128  A    between atoms: _318  and  _320
REMARK  129  A    between atoms: _320  and  _321
REMARK  130  A    between atoms: _320  and  _323
REMARK  131  A    between atoms: _323  and  _324
REMARK  132  A    between atoms: _327  and  _329
REMARK  133  A    between atoms: _329  and  _330
REMARK  134  A    between atoms: _329  and  _332
REMARK  135  A    between atoms: _332  and  _333
REMARK  136  A    between atoms: _336  and  _338
REMARK  137  A    between atoms: _338  and  _339
REMARK  138  A    between atoms: _338  and  _341
REMARK  139  A    between atoms: _341  and  _342
REMARK  140  A    between atoms: _345  and  _347
REMARK  141  A    between atoms: _347  and  _348
REMARK  142  A    between atoms: _347  and  _350
REMARK  143  A    between atoms: _353  and  _355
REMARK  144  A    between atoms: _355  and  _356
REMARK  145  A    between atoms: _355  and  _358
REMARK  146  A    between atoms: _358  and  _359
REMARK  147  A    between atoms: _359  and  _360
REMARK  148  A    between atoms: _360  and  _361
REMARK  149  A    between atoms: _361  and  _362
REMARK  150  A    between atoms: _366  and  _368
REMARK  151  A    between atoms: _368  and  _369
REMARK  152  A    between atoms: _368  and  _371
REMARK  153  A    between atoms: _371  and  _372
REMARK  154  A    between atoms: _372  and  _373
REMARK  155  A    between atoms: _375  and  _377
REMARK  156  A    between atoms: _377  and  _378
REMARK  157  A    between atoms: _377  and  _380
REMARK  158  A    between atoms: _380  and  _381
REMARK  159  A    between atoms: _384  and  _386
REMARK  160  A    between atoms: _386  and  _387
REMARK  161  A    between atoms: _389  and  _391
REMARK  162  A    between atoms: _391  and  _392
REMARK  163  A    between atoms: _394  and  _396
REMARK  164  A    between atoms: _396  and  _397
REMARK  165  A    between atoms: _396  and  _399
REMARK  166  A    between atoms: _399  and  _400
REMARK  167  A    between atoms: _403  and  _405
REMARK  168  A    between atoms: _405  and  _406
REMARK  169  A    between atoms: _408  and  _410
REMARK  170  A    between atoms: _410  and  _411
REMARK  171  A    between atoms: _413  and  _415
REMARK  172  A    between atoms: _415  and  _416
REMARK  173  A    between atoms: _415  and  _418
REMARK  174  A    between atoms: _418  and  _419
REMARK  175  A    between atoms: _425  and  _427
REMARK  176  A    between atoms: _427  and  _428
REMARK  177  A    between atoms: _427  and  _430
REMARK  178  A    between atoms: _430  and  _431
REMARK  179  A    between atoms: _434  and  _436
REMARK  180  A    between atoms: _436  and  _437
REMARK  181  A    between atoms: _436  and  _439
REMARK  182  A    between atoms: _442  and  _444
REMARK  183  A    between atoms: _444  and  _445
REMARK  184  A    between atoms: _444  and  _447
REMARK  185  A    between atoms: _447  and  _448
REMARK  186  A    between atoms: _451  and  _453
REMARK  187  A    between atoms: _453  and  _454
REMARK  188  A    between atoms: _453  and  _456
REMARK  189  A    between atoms: _456  and  _457
REMARK  190  A    between atoms: _461  and  _462
REMARK  191  A    between atoms: _467  and  _469
REMARK  192  A    between atoms: _469  and  _470
REMARK  193  A    between atoms: _469  and  _472
REMARK  194  A    between atoms: _475  and  _477
REMARK  195  A    between atoms: _477  and  _478
REMARK  196  A    between atoms: _477  and  _480
REMARK  197  A    between atoms: _480  and  _481
REMARK  198  A    between atoms: _486  and  _488
REMARK  199  A    between atoms: _488  and  _489
REMARK  200  A    between atoms: _488  and  _491
REMARK  201  A    between atoms: _491  and  _492
REMARK  202  A    between atoms: _495  and  _497
REMARK  203  A    between atoms: _497  and  _498
REMARK  204  A    between atoms: _497  and  _500
REMARK  205  A    between atoms: _500  and  _501
REMARK  206  A    between atoms: _504  and  _506
REMARK  207  A    between atoms: _506  and  _507
REMARK  208  A    between atoms: _509  and  _511
REMARK  209  A    between atoms: _511  and  _512
REMARK  210  A    between atoms: _511  and  _514
REMARK  211  A    between atoms: _514  and  _515
REMARK  212  A    between atoms: _515  and  _516
REMARK  213  A    between atoms: _516  and  _517
REMARK  214  A    between atoms: _526  and  _528
REMARK  215  A    between atoms: _528  and  _529
REMARK  216  A    between atoms: _528  and  _531
REMARK  217  A    between atoms: _531  and  _532
REMARK                            x       y       z     vdW  Elec       q    Type
REMARK                         _______ _______ _______ _____ _____    ______ ____
ROOT
ATOM      1  O   HOH     1      14.851  -7.477  22.707  0.00  0.00    +0.000 OA
ENDROOT
TORSDOF 0
