REMARK  Name = ../refined-set-2016/4hwp/4hwp_pocket.pdb
REMARK  256 active torsions:
REMARK  status: ('A' for Active; 'I' for Inactive)
REMARK    1  A    between atoms: _1  and  _3
REMARK    2  A    between atoms: _3  and  _4
REMARK    3  A    between atoms: _6  and  _8
REMARK    4  A    between atoms: _8  and  _9
REMARK    5  A    between atoms: _8  and  _11
REMARK    6  A    between atoms: _11  and  _12
REMARK    7  A    between atoms: _17  and  _19
REMARK    8  A    between atoms: _19  and  _20
REMARK    9  A    between atoms: _19  and  _22
REMARK   10  A    between atoms: _22  and  _23
REMARK   11  A    between atoms: _28  and  _29
REMARK   12  A    between atoms: _31  and  _33
REMARK   13  A    between atoms: _33  and  _34
REMARK   14  A    between atoms: _38  and  _39
REMARK   15  A    between atoms: _44  and  _46
REMARK   16  A    between atoms: _46  and  _47
REMARK   17  A    between atoms: _46  and  _49
REMARK   18  A    between atoms: _49  and  _50
REMARK   19  A    between atoms: _50  and  _51
REMARK   20  A    between atoms: _53  and  _55
REMARK   21  A    between atoms: _55  and  _56
REMARK   22  A    between atoms: _55  and  _58
REMARK   23  A    between atoms: _58  and  _59
REMARK   24  A    between atoms: _64  and  _66
REMARK   25  A    between atoms: _66  and  _67
REMARK   26  A    between atoms: _66  and  _69
REMARK   27  A    between atoms: _69  and  _70
REMARK   28  A    between atoms: _70  and  ZN_632
REMARK   29  A    between atoms: _72  and  _73
REMARK   30  A    between atoms: _78  and  _80
REMARK   31  A    between atoms: _80  and  _81
REMARK   32  A    between atoms: _80  and  _83
REMARK   33  A    between atoms: _83  and  _84
REMARK   34  A    between atoms: _89  and  _91
REMARK   35  A    between atoms: _91  and  _92
REMARK   36  A    between atoms: _91  and  _94
REMARK   37  A    between atoms: _96  and  _98
REMARK   38  A    between atoms: _98  and  _99
REMARK   39  A    between atoms: _98  and  _101
REMARK   40  A    between atoms: _101  and  _102
REMARK   41  A    between atoms: _107  and  _109
REMARK   42  A    between atoms: _109  and  _110
REMARK   43  A    between atoms: _109  and  _112
REMARK   44  A    between atoms: _112  and  _113
REMARK   45  A    between atoms: _113  and  _114
REMARK   46  A    between atoms: _114  and  _115
REMARK   47  A    between atoms: _124  and  _126
REMARK   48  A    between atoms: _126  and  _127
REMARK   49  A    between atoms: _126  and  _129
REMARK   50  A    between atoms: _129  and  _130
REMARK   51  A    between atoms: _135  and  _137
REMARK   52  A    between atoms: _137  and  _138
REMARK   53  A    between atoms: _137  and  _140
REMARK   54  A    between atoms: _140  and  _141
REMARK   55  A    between atoms: _141  and  _142
REMARK   56  A    between atoms: _146  and  _147
REMARK   57  A    between atoms: _152  and  _154
REMARK   58  A    between atoms: _154  and  _155
REMARK   59  A    between atoms: _154  and  _157
REMARK   60  A    between atoms: _157  and  _158
REMARK   61  A    between atoms: _160  and  _162
REMARK   62  A    between atoms: _162  and  _163
REMARK   63  A    between atoms: _162  and  _165
REMARK   64  A    between atoms: _165  and  _166
REMARK   65  A    between atoms: _169  and  _171
REMARK   66  A    between atoms: _171  and  _172
REMARK   67  A    between atoms: _171  and  _174
REMARK   68  A    between atoms: _174  and  _175
REMARK   69  A    between atoms: _180  and  _182
REMARK   70  A    between atoms: _182  and  _183
REMARK   71  A    between atoms: _185  and  _187
REMARK   72  A    between atoms: _187  and  _188
REMARK   73  A    between atoms: _187  and  _190
REMARK   74  A    between atoms: _190  and  _191
REMARK   75  A    between atoms: _194  and  _196
REMARK   76  A    between atoms: _196  and  _197
REMARK   77  A    between atoms: _196  and  _199
REMARK   78  A    between atoms: _199  and  _200
REMARK   79  A    between atoms: _200  and  _201
REMARK   80  A    between atoms: _203  and  _205
REMARK   81  A    between atoms: _205  and  _206
REMARK   82  A    between atoms: _205  and  _208
REMARK   83  A    between atoms: _208  and  _209
REMARK   84  A    between atoms: _209  and  _210
REMARK   85  A    between atoms: _210  and  _211
REMARK   86  A    between atoms: _220  and  _222
REMARK   87  A    between atoms: _222  and  _223
REMARK   88  A    between atoms: _222  and  _225
REMARK   89  A    between atoms: _228  and  _230
REMARK   90  A    between atoms: _230  and  _231
REMARK   91  A    between atoms: _230  and  _233
REMARK   92  A    between atoms: _233  and  _234
REMARK   93  A    between atoms: _234  and  _235
REMARK   94  A    between atoms: _235  and  _236
REMARK   95  A    between atoms: _245  and  _247
REMARK   96  A    between atoms: _247  and  _248
REMARK   97  A    between atoms: _250  and  _252
REMARK   98  A    between atoms: _252  and  _253
REMARK   99  A    between atoms: _252  and  _255
REMARK  100  A    between atoms: _255  and  _256
REMARK  101  A    between atoms: _262  and  _264
REMARK  102  A    between atoms: _264  and  _265
REMARK  103  A    between atoms: _264  and  _267
REMARK  104  A    between atoms: _267  and  _268
REMARK  105  A    between atoms: _271  and  _273
REMARK  106  A    between atoms: _273  and  _274
REMARK  107  A    between atoms: _273  and  _276
REMARK  108  A    between atoms: _276  and  _277
REMARK  109  A    between atoms: _277  and  _278
REMARK  110  A    between atoms: _283  and  _285
REMARK  111  A    between atoms: _285  and  _286
REMARK  112  A    between atoms: _285  and  _288
REMARK  113  A    between atoms: _288  and  _289
REMARK  114  A    between atoms: _292  and  _294
REMARK  115  A    between atoms: _294  and  _295
REMARK  116  A    between atoms: _294  and  _297
REMARK  117  A    between atoms: _297  and  _298
REMARK  118  A    between atoms: _301  and  _303
REMARK  119  A    between atoms: _303  and  _304
REMARK  120  A    between atoms: _307  and  _309
REMARK  121  A    between atoms: _309  and  _310
REMARK  122  A    between atoms: _309  and  _312
REMARK  123  A    between atoms: _312  and  _313
REMARK  124  A    between atoms: _317  and  ZN_632
REMARK  125  A    between atoms: _318  and  _320
REMARK  126  A    between atoms: _320  and  _321
REMARK  127  A    between atoms: _320  and  _323
REMARK  128  A    between atoms: _323  and  _324
REMARK  129  A    between atoms: _327  and  _329
REMARK  130  A    between atoms: _329  and  _330
REMARK  131  A    between atoms: _329  and  _332
REMARK  132  A    between atoms: _332  and  _333
REMARK  133  A    between atoms: _335  and  _337
REMARK  134  A    between atoms: _337  and  _338
REMARK  135  A    between atoms: _337  and  _340
REMARK  136  A    between atoms: _340  and  _341
REMARK  137  A    between atoms: _341  and  _342
REMARK  138  A    between atoms: _345  and  _347
REMARK  139  A    between atoms: _347  and  _348
REMARK  140  A    between atoms: _350  and  _352
REMARK  141  A    between atoms: _352  and  _353
REMARK  142  A    between atoms: _356  and  _358
REMARK  143  A    between atoms: _358  and  _359
REMARK  144  A    between atoms: _358  and  _361
REMARK  145  A    between atoms: _361  and  _362
REMARK  146  A    between atoms: _368  and  _370
REMARK  147  A    between atoms: _370  and  _371
REMARK  148  A    between atoms: _370  and  _373
REMARK  149  A    between atoms: _373  and  _374
REMARK  150  A    between atoms: _379  and  _380
REMARK  151  A    between atoms: _382  and  _384
REMARK  152  A    between atoms: _384  and  _385
REMARK  153  A    between atoms: _384  and  _387
REMARK  154  A    between atoms: _387  and  _388
REMARK  155  A    between atoms: _388  and  _389
REMARK  156  A    between atoms: _389  and  _390
REMARK  157  A    between atoms: _390  and  _391
REMARK  158  A    between atoms: _395  and  _397
REMARK  159  A    between atoms: _397  and  _398
REMARK  160  A    between atoms: _397  and  _400
REMARK  161  A    between atoms: _400  and  _401
REMARK  162  A    between atoms: _404  and  _406
REMARK  163  A    between atoms: _406  and  _407
REMARK  164  A    between atoms: _406  and  _409
REMARK  165  A    between atoms: _409  and  _410
REMARK  166  A    between atoms: _410  and  _411
REMARK  167  A    between atoms: _414  and  _416
REMARK  168  A    between atoms: _416  and  _417
REMARK  169  A    between atoms: _416  and  _419
REMARK  170  A    between atoms: _419  and  _420
REMARK  171  A    between atoms: _430  and  _432
REMARK  172  A    between atoms: _432  and  _433
REMARK  173  A    between atoms: _432  and  _435
REMARK  174  A    between atoms: _435  and  _436
REMARK  175  A    between atoms: _436  and  _437
REMARK  176  A    between atoms: _442  and  _444
REMARK  177  A    between atoms: _444  and  _445
REMARK  178  A    between atoms: _444  and  _447
REMARK  179  A    between atoms: _449  and  _451
REMARK  180  A    between atoms: _451  and  _452
REMARK  181  A    between atoms: _454  and  _456
REMARK  182  A    between atoms: _456  and  _457
REMARK  183  A    between atoms: _456  and  _459
REMARK  184  A    between atoms: _459  and  _460
REMARK  185  A    between atoms: _463  and  _465
REMARK  186  A    between atoms: _465  and  _466
REMARK  187  A    between atoms: _465  and  _468
REMARK  188  A    between atoms: _471  and  _473
REMARK  189  A    between atoms: _473  and  _474
REMARK  190  A    between atoms: _473  and  _476
REMARK  191  A    between atoms: _476  and  _477
REMARK  192  A    between atoms: _477  and  _478
REMARK  193  A    between atoms: _483  and  _485
REMARK  194  A    between atoms: _485  and  _486
REMARK  195  A    between atoms: _485  and  _488
REMARK  196  A    between atoms: _488  and  _489
REMARK  197  A    between atoms: _492  and  _494
REMARK  198  A    between atoms: _494  and  _495
REMARK  199  A    between atoms: _494  and  _497
REMARK  200  A    between atoms: _497  and  _498
REMARK  201  A    between atoms: _501  and  _503
REMARK  202  A    between atoms: _503  and  _504
REMARK  203  A    between atoms: _503  and  _506
REMARK  204  A    between atoms: _506  and  _507
REMARK  205  A    between atoms: _507  and  _508
REMARK  206  A    between atoms: _510  and  _512
REMARK  207  A    between atoms: _512  and  _513
REMARK  208  A    between atoms: _512  and  _515
REMARK  209  A    between atoms: _515  and  _516
REMARK  210  A    between atoms: _519  and  _521
REMARK  211  A    between atoms: _521  and  _522
REMARK  212  A    between atoms: _521  and  _524
REMARK  213  A    between atoms: _524  and  _525
REMARK  214  A    between atoms: _526  and  ZN_632
REMARK  215  A    between atoms: _530  and  _532
REMARK  216  A    between atoms: _532  and  _533
REMARK  217  A    between atoms: _532  and  _535
REMARK  218  A    between atoms: _535  and  _536
REMARK  219  A    between atoms: _536  and  _537
REMARK  220  A    between atoms: _537  and  _538
REMARK  221  A    between atoms: _547  and  _549
REMARK  222  A    between atoms: _549  and  _550
REMARK  223  A    between atoms: _553  and  _555
REMARK  224  A    between atoms: _555  and  _556
REMARK  225  A    between atoms: _555  and  _558
REMARK  226  A    between atoms: _558  and  _559
REMARK  227  A    between atoms: _562  and  _564
REMARK  228  A    between atoms: _564  and  _565
REMARK  229  A    between atoms: _564  and  _567
REMARK  230  A    between atoms: _567  and  _568
REMARK  231  A    between atoms: _571  and  _573
REMARK  232  A    between atoms: _573  and  _574
REMARK  233  A    between atoms: _576  and  _578
REMARK  234  A    between atoms: _578  and  _579
REMARK  235  A    between atoms: _578  and  _581
REMARK  236  A    between atoms: _581  and  _582
REMARK  237  A    between atoms: _584  and  _586
REMARK  238  A    between atoms: _586  and  _587
REMARK  239  A    between atoms: _586  and  _589
REMARK  240  A    between atoms: _589  and  _590
REMARK  241  A    between atoms: _590  and  _591
REMARK  242  A    between atoms: _593  and  _595
REMARK  243  A    between atoms: _595  and  _596
REMARK  244  A    between atoms: _595  and  _598
REMARK  245  A    between atoms: _598  and  _599
REMARK  246  A    between atoms: _599  and  _600
REMARK  247  A    between atoms: _603  and  _605
REMARK  248  A    between atoms: _605  and  _606
REMARK  249  A    between atoms: _605  and  _608
REMARK  250  A    between atoms: _608  and  _609
REMARK  251  A    between atoms: _609  and  _610
REMARK  252  A    between atoms: _610  and  _611
REMARK  253  A    between atoms: _620  and  _622
REMARK  254  A    between atoms: _622  and  _623
REMARK  255  A    between atoms: _622  and  _625
REMARK  256  A    between atoms: _625  and  _626
REMARK                            x       y       z     vdW  Elec       q    Type
REMARK                         _______ _______ _______ _____ _____    ______ ____
ROOT
ATOM      1  CA  GLY A   1     -29.616 -35.976  11.910  0.00  0.00    +0.156 C 
ENDROOT
BRANCH   1   2
ATOM      2  N   GLY A   1     -30.759 -36.017  10.987  0.00  0.00    -0.238 NA
ATOM      3  H   GLY A   1     -31.599 -36.578  11.234  0.00  0.00    +0.142 HD
ENDBRANCH   1   2
BRANCH   1   4
ATOM      4  C   GLY A   1     -29.324 -34.623  12.558  0.00  0.00    +0.226 C 
ATOM      5  O   GLY A   1     -28.191 -34.402  13.029  0.00  0.00    -0.287 OA
ENDBRANCH   1   4
TORSDOF 2
REMARK  Name = ../refined-set-2016/4hwp/4hwp_pocket.pdb
REMARK  256 active torsions:
REMARK  status: ('A' for Active; 'I' for Inactive)
REMARK    1  A    between atoms: _1  and  _3
REMARK    2  A    between atoms: _3  and  _4
REMARK    3  A    between atoms: _6  and  _8
REMARK    4  A    between atoms: _8  and  _9
REMARK    5  A    between atoms: _8  and  _11
REMARK    6  A    between atoms: _11  and  _12
REMARK    7  A    between atoms: _17  and  _19
REMARK    8  A    between atoms: _19  and  _20
REMARK    9  A    between atoms: _19  and  _22
REMARK   10  A    between atoms: _22  and  _23
REMARK   11  A    between atoms: _28  and  _29
REMARK   12  A    between atoms: _31  and  _33
REMARK   13  A    between atoms: _33  and  _34
REMARK   14  A    between atoms: _38  and  _39
REMARK   15  A    between atoms: _44  and  _46
REMARK   16  A    between atoms: _46  and  _47
REMARK   17  A    between atoms: _46  and  _49
REMARK   18  A    between atoms: _49  and  _50
REMARK   19  A    between atoms: _50  and  _51
REMARK   20  A    between atoms: _53  and  _55
REMARK   21  A    between atoms: _55  and  _56
REMARK   22  A    between atoms: _55  and  _58
REMARK   23  A    between atoms: _58  and  _59
REMARK   24  A    between atoms: _64  and  _66
REMARK   25  A    between atoms: _66  and  _67
REMARK   26  A    between atoms: _66  and  _69
REMARK   27  A    between atoms: _69  and  _70
REMARK   28  A    between atoms: _70  and  ZN_632
REMARK   29  A    between atoms: _72  and  _73
REMARK   30  A    between atoms: _78  and  _80
REMARK   31  A    between atoms: _80  and  _81
REMARK   32  A    between atoms: _80  and  _83
REMARK   33  A    between atoms: _83  and  _84
REMARK   34  A    between atoms: _89  and  _91
REMARK   35  A    between atoms: _91  and  _92
REMARK   36  A    between atoms: _91  and  _94
REMARK   37  A    between atoms: _96  and  _98
REMARK   38  A    between atoms: _98  and  _99
REMARK   39  A    between atoms: _98  and  _101
REMARK   40  A    between atoms: _101  and  _102
REMARK   41  A    between atoms: _107  and  _109
REMARK   42  A    between atoms: _109  and  _110
REMARK   43  A    between atoms: _109  and  _112
REMARK   44  A    between atoms: _112  and  _113
REMARK   45  A    between atoms: _113  and  _114
REMARK   46  A    between atoms: _114  and  _115
REMARK   47  A    between atoms: _124  and  _126
REMARK   48  A    between atoms: _126  and  _127
REMARK   49  A    between atoms: _126  and  _129
REMARK   50  A    between atoms: _129  and  _130
REMARK   51  A    between atoms: _135  and  _137
REMARK   52  A    between atoms: _137  and  _138
REMARK   53  A    between atoms: _137  and  _140
REMARK   54  A    between atoms: _140  and  _141
REMARK   55  A    between atoms: _141  and  _142
REMARK   56  A    between atoms: _146  and  _147
REMARK   57  A    between atoms: _152  and  _154
REMARK   58  A    between atoms: _154  and  _155
REMARK   59  A    between atoms: _154  and  _157
REMARK   60  A    between atoms: _157  and  _158
REMARK   61  A    between atoms: _160  and  _162
REMARK   62  A    between atoms: _162  and  _163
REMARK   63  A    between atoms: _162  and  _165
REMARK   64  A    between atoms: _165  and  _166
REMARK   65  A    between atoms: _169  and  _171
REMARK   66  A    between atoms: _171  and  _172
REMARK   67  A    between atoms: _171  and  _174
REMARK   68  A    between atoms: _174  and  _175
REMARK   69  A    between atoms: _180  and  _182
REMARK   70  A    between atoms: _182  and  _183
REMARK   71  A    between atoms: _185  and  _187
REMARK   72  A    between atoms: _187  and  _188
REMARK   73  A    between atoms: _187  and  _190
REMARK   74  A    between atoms: _190  and  _191
REMARK   75  A    between atoms: _194  and  _196
REMARK   76  A    between atoms: _196  and  _197
REMARK   77  A    between atoms: _196  and  _199
REMARK   78  A    between atoms: _199  and  _200
REMARK   79  A    between atoms: _200  and  _201
REMARK   80  A    between atoms: _203  and  _205
REMARK   81  A    between atoms: _205  and  _206
REMARK   82  A    between atoms: _205  and  _208
REMARK   83  A    between atoms: _208  and  _209
REMARK   84  A    between atoms: _209  and  _210
REMARK   85  A    between atoms: _210  and  _211
REMARK   86  A    between atoms: _220  and  _222
REMARK   87  A    between atoms: _222  and  _223
REMARK   88  A    between atoms: _222  and  _225
REMARK   89  A    between atoms: _228  and  _230
REMARK   90  A    between atoms: _230  and  _231
REMARK   91  A    between atoms: _230  and  _233
REMARK   92  A    between atoms: _233  and  _234
REMARK   93  A    between atoms: _234  and  _235
REMARK   94  A    between atoms: _235  and  _236
REMARK   95  A    between atoms: _245  and  _247
REMARK   96  A    between atoms: _247  and  _248
REMARK   97  A    between atoms: _250  and  _252
REMARK   98  A    between atoms: _252  and  _253
REMARK   99  A    between atoms: _252  and  _255
REMARK  100  A    between atoms: _255  and  _256
REMARK  101  A    between atoms: _262  and  _264
REMARK  102  A    between atoms: _264  and  _265
REMARK  103  A    between atoms: _264  and  _267
REMARK  104  A    between atoms: _267  and  _268
REMARK  105  A    between atoms: _271  and  _273
REMARK  106  A    between atoms: _273  and  _274
REMARK  107  A    between atoms: _273  and  _276
REMARK  108  A    between atoms: _276  and  _277
REMARK  109  A    between atoms: _277  and  _278
REMARK  110  A    between atoms: _283  and  _285
REMARK  111  A    between atoms: _285  and  _286
REMARK  112  A    between atoms: _285  and  _288
REMARK  113  A    between atoms: _288  and  _289
REMARK  114  A    between atoms: _292  and  _294
REMARK  115  A    between atoms: _294  and  _295
REMARK  116  A    between atoms: _294  and  _297
REMARK  117  A    between atoms: _297  and  _298
REMARK  118  A    between atoms: _301  and  _303
REMARK  119  A    between atoms: _303  and  _304
REMARK  120  A    between atoms: _307  and  _309
REMARK  121  A    between atoms: _309  and  _310
REMARK  122  A    between atoms: _309  and  _312
REMARK  123  A    between atoms: _312  and  _313
REMARK  124  A    between atoms: _317  and  ZN_632
REMARK  125  A    between atoms: _318  and  _320
REMARK  126  A    between atoms: _320  and  _321
REMARK  127  A    between atoms: _320  and  _323
REMARK  128  A    between atoms: _323  and  _324
REMARK  129  A    between atoms: _327  and  _329
REMARK  130  A    between atoms: _329  and  _330
REMARK  131  A    between atoms: _329  and  _332
REMARK  132  A    between atoms: _332  and  _333
REMARK  133  A    between atoms: _335  and  _337
REMARK  134  A    between atoms: _337  and  _338
REMARK  135  A    between atoms: _337  and  _340
REMARK  136  A    between atoms: _340  and  _341
REMARK  137  A    between atoms: _341  and  _342
REMARK  138  A    between atoms: _345  and  _347
REMARK  139  A    between atoms: _347  and  _348
REMARK  140  A    between atoms: _350  and  _352
REMARK  141  A    between atoms: _352  and  _353
REMARK  142  A    between atoms: _356  and  _358
REMARK  143  A    between atoms: _358  and  _359
REMARK  144  A    between atoms: _358  and  _361
REMARK  145  A    between atoms: _361  and  _362
REMARK  146  A    between atoms: _368  and  _370
REMARK  147  A    between atoms: _370  and  _371
REMARK  148  A    between atoms: _370  and  _373
REMARK  149  A    between atoms: _373  and  _374
REMARK  150  A    between atoms: _379  and  _380
REMARK  151  A    between atoms: _382  and  _384
REMARK  152  A    between atoms: _384  and  _385
REMARK  153  A    between atoms: _384  and  _387
REMARK  154  A    between atoms: _387  and  _388
REMARK  155  A    between atoms: _388  and  _389
REMARK  156  A    between atoms: _389  and  _390
REMARK  157  A    between atoms: _390  and  _391
REMARK  158  A    between atoms: _395  and  _397
REMARK  159  A    between atoms: _397  and  _398
REMARK  160  A    between atoms: _397  and  _400
REMARK  161  A    between atoms: _400  and  _401
REMARK  162  A    between atoms: _404  and  _406
REMARK  163  A    between atoms: _406  and  _407
REMARK  164  A    between atoms: _406  and  _409
REMARK  165  A    between atoms: _409  and  _410
REMARK  166  A    between atoms: _410  and  _411
REMARK  167  A    between atoms: _414  and  _416
REMARK  168  A    between atoms: _416  and  _417
REMARK  169  A    between atoms: _416  and  _419
REMARK  170  A    between atoms: _419  and  _420
REMARK  171  A    between atoms: _430  and  _432
REMARK  172  A    between atoms: _432  and  _433
REMARK  173  A    between atoms: _432  and  _435
REMARK  174  A    between atoms: _435  and  _436
REMARK  175  A    between atoms: _436  and  _437
REMARK  176  A    between atoms: _442  and  _444
REMARK  177  A    between atoms: _444  and  _445
REMARK  178  A    between atoms: _444  and  _447
REMARK  179  A    between atoms: _449  and  _451
REMARK  180  A    between atoms: _451  and  _452
REMARK  181  A    between atoms: _454  and  _456
REMARK  182  A    between atoms: _456  and  _457
REMARK  183  A    between atoms: _456  and  _459
REMARK  184  A    between atoms: _459  and  _460
REMARK  185  A    between atoms: _463  and  _465
REMARK  186  A    between atoms: _465  and  _466
REMARK  187  A    between atoms: _465  and  _468
REMARK  188  A    between atoms: _471  and  _473
REMARK  189  A    between atoms: _473  and  _474
REMARK  190  A    between atoms: _473  and  _476
REMARK  191  A    between atoms: _476  and  _477
REMARK  192  A    between atoms: _477  and  _478
REMARK  193  A    between atoms: _483  and  _485
REMARK  194  A    between atoms: _485  and  _486
REMARK  195  A    between atoms: _485  and  _488
REMARK  196  A    between atoms: _488  and  _489
REMARK  197  A    between atoms: _492  and  _494
REMARK  198  A    between atoms: _494  and  _495
REMARK  199  A    between atoms: _494  and  _497
REMARK  200  A    between atoms: _497  and  _498
REMARK  201  A    between atoms: _501  and  _503
REMARK  202  A    between atoms: _503  and  _504
REMARK  203  A    between atoms: _503  and  _506
REMARK  204  A    between atoms: _506  and  _507
REMARK  205  A    between atoms: _507  and  _508
REMARK  206  A    between atoms: _510  and  _512
REMARK  207  A    between atoms: _512  and  _513
REMARK  208  A    between atoms: _512  and  _515
REMARK  209  A    between atoms: _515  and  _516
REMARK  210  A    between atoms: _519  and  _521
REMARK  211  A    between atoms: _521  and  _522
REMARK  212  A    between atoms: _521  and  _524
REMARK  213  A    between atoms: _524  and  _525
REMARK  214  A    between atoms: _526  and  ZN_632
REMARK  215  A    between atoms: _530  and  _532
REMARK  216  A    between atoms: _532  and  _533
REMARK  217  A    between atoms: _532  and  _535
REMARK  218  A    between atoms: _535  and  _536
REMARK  219  A    between atoms: _536  and  _537
REMARK  220  A    between atoms: _537  and  _538
REMARK  221  A    between atoms: _547  and  _549
REMARK  222  A    between atoms: _549  and  _550
REMARK  223  A    between atoms: _553  and  _555
REMARK  224  A    between atoms: _555  and  _556
REMARK  225  A    between atoms: _555  and  _558
REMARK  226  A    between atoms: _558  and  _559
REMARK  227  A    between atoms: _562  and  _564
REMARK  228  A    between atoms: _564  and  _565
REMARK  229  A    between atoms: _564  and  _567
REMARK  230  A    between atoms: _567  and  _568
REMARK  231  A    between atoms: _571  and  _573
REMARK  232  A    between atoms: _573  and  _574
REMARK  233  A    between atoms: _576  and  _578
REMARK  234  A    between atoms: _578  and  _579
REMARK  235  A    between atoms: _578  and  _581
REMARK  236  A    between atoms: _581  and  _582
REMARK  237  A    between atoms: _584  and  _586
REMARK  238  A    between atoms: _586  and  _587
REMARK  239  A    between atoms: _586  and  _589
REMARK  240  A    between atoms: _589  and  _590
REMARK  241  A    between atoms: _590  and  _591
REMARK  242  A    between atoms: _593  and  _595
REMARK  243  A    between atoms: _595  and  _596
REMARK  244  A    between atoms: _595  and  _598
REMARK  245  A    between atoms: _598  and  _599
REMARK  246  A    between atoms: _599  and  _600
REMARK  247  A    between atoms: _603  and  _605
REMARK  248  A    between atoms: _605  and  _606
REMARK  249  A    between atoms: _605  and  _608
REMARK  250  A    between atoms: _608  and  _609
REMARK  251  A    between atoms: _609  and  _610
REMARK  252  A    between atoms: _610  and  _611
REMARK  253  A    between atoms: _620  and  _622
REMARK  254  A    between atoms: _622  and  _623
REMARK  255  A    between atoms: _622  and  _625
REMARK  256  A    between atoms: _625  and  _626
REMARK                            x       y       z     vdW  Elec       q    Type
REMARK                         _______ _______ _______ _____ _____    ______ ____
ROOT
ATOM      1  CB  HIS A   1      -9.791 -31.965   6.334  0.00  0.00    +0.072 C 
ENDROOT
BRANCH   1   2
ATOM      2  CG  HIS A   1      -9.668 -32.042   7.818  0.00  0.00    +0.082 A 
ATOM      3  CD2 HIS A   1     -10.448 -32.704   8.778  0.00  0.00    +0.115 A 
ATOM      4  NE2 HIS A   1      -9.892 -32.445  10.006  0.00  0.00    -0.221 NA
ATOM      5  CE1 HIS A   1      -8.795 -31.676   9.823  0.00  0.00    +0.199 A 
ATOM      6  ND1 HIS A   1      -8.663 -31.445   8.483  0.00  0.00    -0.227 NA
ENDBRANCH   1   2
BRANCH   1   7
ATOM      7  CA  HIS A   1      -8.967 -33.003   5.601  0.00  0.00    +0.139 C 
BRANCH   7   8
ATOM      8  N   HIS A   1      -7.505 -32.657   5.529  0.00  0.00    -0.239 NA
ATOM      9  H   HIS A   1      -7.181 -31.721   5.847  0.00  0.00    +0.142 HD
ENDBRANCH   7   8
BRANCH   7  10
ATOM     10  C   HIS A   1      -9.627 -33.240   4.280  0.00  0.00    +0.224 C 
ATOM     11  O   HIS A   1     -10.517 -34.101   4.174  0.00  0.00    -0.287 OA
ENDBRANCH   7  10
ENDBRANCH   1   7
TORSDOF 4
REMARK  Name = ../refined-set-2016/4hwp/4hwp_pocket.pdb
REMARK  256 active torsions:
REMARK  status: ('A' for Active; 'I' for Inactive)
REMARK    1  A    between atoms: _1  and  _3
REMARK    2  A    between atoms: _3  and  _4
REMARK    3  A    between atoms: _6  and  _8
REMARK    4  A    between atoms: _8  and  _9
REMARK    5  A    between atoms: _8  and  _11
REMARK    6  A    between atoms: _11  and  _12
REMARK    7  A    between atoms: _17  and  _19
REMARK    8  A    between atoms: _19  and  _20
REMARK    9  A    between atoms: _19  and  _22
REMARK   10  A    between atoms: _22  and  _23
REMARK   11  A    between atoms: _28  and  _29
REMARK   12  A    between atoms: _31  and  _33
REMARK   13  A    between atoms: _33  and  _34
REMARK   14  A    between atoms: _38  and  _39
REMARK   15  A    between atoms: _44  and  _46
REMARK   16  A    between atoms: _46  and  _47
REMARK   17  A    between atoms: _46  and  _49
REMARK   18  A    between atoms: _49  and  _50
REMARK   19  A    between atoms: _50  and  _51
REMARK   20  A    between atoms: _53  and  _55
REMARK   21  A    between atoms: _55  and  _56
REMARK   22  A    between atoms: _55  and  _58
REMARK   23  A    between atoms: _58  and  _59
REMARK   24  A    between atoms: _64  and  _66
REMARK   25  A    between atoms: _66  and  _67
REMARK   26  A    between atoms: _66  and  _69
REMARK   27  A    between atoms: _69  and  _70
REMARK   28  A    between atoms: _70  and  ZN_632
REMARK   29  A    between atoms: _72  and  _73
REMARK   30  A    between atoms: _78  and  _80
REMARK   31  A    between atoms: _80  and  _81
REMARK   32  A    between atoms: _80  and  _83
REMARK   33  A    between atoms: _83  and  _84
REMARK   34  A    between atoms: _89  and  _91
REMARK   35  A    between atoms: _91  and  _92
REMARK   36  A    between atoms: _91  and  _94
REMARK   37  A    between atoms: _96  and  _98
REMARK   38  A    between atoms: _98  and  _99
REMARK   39  A    between atoms: _98  and  _101
REMARK   40  A    between atoms: _101  and  _102
REMARK   41  A    between atoms: _107  and  _109
REMARK   42  A    between atoms: _109  and  _110
REMARK   43  A    between atoms: _109  and  _112
REMARK   44  A    between atoms: _112  and  _113
REMARK   45  A    between atoms: _113  and  _114
REMARK   46  A    between atoms: _114  and  _115
REMARK   47  A    between atoms: _124  and  _126
REMARK   48  A    between atoms: _126  and  _127
REMARK   49  A    between atoms: _126  and  _129
REMARK   50  A    between atoms: _129  and  _130
REMARK   51  A    between atoms: _135  and  _137
REMARK   52  A    between atoms: _137  and  _138
REMARK   53  A    between atoms: _137  and  _140
REMARK   54  A    between atoms: _140  and  _141
REMARK   55  A    between atoms: _141  and  _142
REMARK   56  A    between atoms: _146  and  _147
REMARK   57  A    between atoms: _152  and  _154
REMARK   58  A    between atoms: _154  and  _155
REMARK   59  A    between atoms: _154  and  _157
REMARK   60  A    between atoms: _157  and  _158
REMARK   61  A    between atoms: _160  and  _162
REMARK   62  A    between atoms: _162  and  _163
REMARK   63  A    between atoms: _162  and  _165
REMARK   64  A    between atoms: _165  and  _166
REMARK   65  A    between atoms: _169  and  _171
REMARK   66  A    between atoms: _171  and  _172
REMARK   67  A    between atoms: _171  and  _174
REMARK   68  A    between atoms: _174  and  _175
REMARK   69  A    between atoms: _180  and  _182
REMARK   70  A    between atoms: _182  and  _183
REMARK   71  A    between atoms: _185  and  _187
REMARK   72  A    between atoms: _187  and  _188
REMARK   73  A    between atoms: _187  and  _190
REMARK   74  A    between atoms: _190  and  _191
REMARK   75  A    between atoms: _194  and  _196
REMARK   76  A    between atoms: _196  and  _197
REMARK   77  A    between atoms: _196  and  _199
REMARK   78  A    between atoms: _199  and  _200
REMARK   79  A    between atoms: _200  and  _201
REMARK   80  A    between atoms: _203  and  _205
REMARK   81  A    between atoms: _205  and  _206
REMARK   82  A    between atoms: _205  and  _208
REMARK   83  A    between atoms: _208  and  _209
REMARK   84  A    between atoms: _209  and  _210
REMARK   85  A    between atoms: _210  and  _211
REMARK   86  A    between atoms: _220  and  _222
REMARK   87  A    between atoms: _222  and  _223
REMARK   88  A    between atoms: _222  and  _225
REMARK   89  A    between atoms: _228  and  _230
REMARK   90  A    between atoms: _230  and  _231
REMARK   91  A    between atoms: _230  and  _233
REMARK   92  A    between atoms: _233  and  _234
REMARK   93  A    between atoms: _234  and  _235
REMARK   94  A    between atoms: _235  and  _236
REMARK   95  A    between atoms: _245  and  _247
REMARK   96  A    between atoms: _247  and  _248
REMARK   97  A    between atoms: _250  and  _252
REMARK   98  A    between atoms: _252  and  _253
REMARK   99  A    between atoms: _252  and  _255
REMARK  100  A    between atoms: _255  and  _256
REMARK  101  A    between atoms: _262  and  _264
REMARK  102  A    between atoms: _264  and  _265
REMARK  103  A    between atoms: _264  and  _267
REMARK  104  A    between atoms: _267  and  _268
REMARK  105  A    between atoms: _271  and  _273
REMARK  106  A    between atoms: _273  and  _274
REMARK  107  A    between atoms: _273  and  _276
REMARK  108  A    between atoms: _276  and  _277
REMARK  109  A    between atoms: _277  and  _278
REMARK  110  A    between atoms: _283  and  _285
REMARK  111  A    between atoms: _285  and  _286
REMARK  112  A    between atoms: _285  and  _288
REMARK  113  A    between atoms: _288  and  _289
REMARK  114  A    between atoms: _292  and  _294
REMARK  115  A    between atoms: _294  and  _295
REMARK  116  A    between atoms: _294  and  _297
REMARK  117  A    between atoms: _297  and  _298
REMARK  118  A    between atoms: _301  and  _303
REMARK  119  A    between atoms: _303  and  _304
REMARK  120  A    between atoms: _307  and  _309
REMARK  121  A    between atoms: _309  and  _310
REMARK  122  A    between atoms: _309  and  _312
REMARK  123  A    between atoms: _312  and  _313
REMARK  124  A    between atoms: _317  and  ZN_632
REMARK  125  A    between atoms: _318  and  _320
REMARK  126  A    between atoms: _320  and  _321
REMARK  127  A    between atoms: _320  and  _323
REMARK  128  A    between atoms: _323  and  _324
REMARK  129  A    between atoms: _327  and  _329
REMARK  130  A    between atoms: _329  and  _330
REMARK  131  A    between atoms: _329  and  _332
REMARK  132  A    between atoms: _332  and  _333
REMARK  133  A    between atoms: _335  and  _337
REMARK  134  A    between atoms: _337  and  _338
REMARK  135  A    between atoms: _337  and  _340
REMARK  136  A    between atoms: _340  and  _341
REMARK  137  A    between atoms: _341  and  _342
REMARK  138  A    between atoms: _345  and  _347
REMARK  139  A    between atoms: _347  and  _348
REMARK  140  A    between atoms: _350  and  _352
REMARK  141  A    between atoms: _352  and  _353
REMARK  142  A    between atoms: _356  and  _358
REMARK  143  A    between atoms: _358  and  _359
REMARK  144  A    between atoms: _358  and  _361
REMARK  145  A    between atoms: _361  and  _362
REMARK  146  A    between atoms: _368  and  _370
REMARK  147  A    between atoms: _370  and  _371
REMARK  148  A    between atoms: _370  and  _373
REMARK  149  A    between atoms: _373  and  _374
REMARK  150  A    between atoms: _379  and  _380
REMARK  151  A    between atoms: _382  and  _384
REMARK  152  A    between atoms: _384  and  _385
REMARK  153  A    between atoms: _384  and  _387
REMARK  154  A    between atoms: _387  and  _388
REMARK  155  A    between atoms: _388  and  _389
REMARK  156  A    between atoms: _389  and  _390
REMARK  157  A    between atoms: _390  and  _391
REMARK  158  A    between atoms: _395  and  _397
REMARK  159  A    between atoms: _397  and  _398
REMARK  160  A    between atoms: _397  and  _400
REMARK  161  A    between atoms: _400  and  _401
REMARK  162  A    between atoms: _404  and  _406
REMARK  163  A    between atoms: _406  and  _407
REMARK  164  A    between atoms: _406  and  _409
REMARK  165  A    between atoms: _409  and  _410
REMARK  166  A    between atoms: _410  and  _411
REMARK  167  A    between atoms: _414  and  _416
REMARK  168  A    between atoms: _416  and  _417
REMARK  169  A    between atoms: _416  and  _419
REMARK  170  A    between atoms: _419  and  _420
REMARK  171  A    between atoms: _430  and  _432
REMARK  172  A    between atoms: _432  and  _433
REMARK  173  A    between atoms: _432  and  _435
REMARK  174  A    between atoms: _435  and  _436
REMARK  175  A    between atoms: _436  and  _437
REMARK  176  A    between atoms: _442  and  _444
REMARK  177  A    between atoms: _444  and  _445
REMARK  178  A    between atoms: _444  and  _447
REMARK  179  A    between atoms: _449  and  _451
REMARK  180  A    between atoms: _451  and  _452
REMARK  181  A    between atoms: _454  and  _456
REMARK  182  A    between atoms: _456  and  _457
REMARK  183  A    between atoms: _456  and  _459
REMARK  184  A    between atoms: _459  and  _460
REMARK  185  A    between atoms: _463  and  _465
REMARK  186  A    between atoms: _465  and  _466
REMARK  187  A    between atoms: _465  and  _468
REMARK  188  A    between atoms: _471  and  _473
REMARK  189  A    between atoms: _473  and  _474
REMARK  190  A    between atoms: _473  and  _476
REMARK  191  A    between atoms: _476  and  _477
REMARK  192  A    between atoms: _477  and  _478
REMARK  193  A    between atoms: _483  and  _485
REMARK  194  A    between atoms: _485  and  _486
REMARK  195  A    between atoms: _485  and  _488
REMARK  196  A    between atoms: _488  and  _489
REMARK  197  A    between atoms: _492  and  _494
REMARK  198  A    between atoms: _494  and  _495
REMARK  199  A    between atoms: _494  and  _497
REMARK  200  A    between atoms: _497  and  _498
REMARK  201  A    between atoms: _501  and  _503
REMARK  202  A    between atoms: _503  and  _504
REMARK  203  A    between atoms: _503  and  _506
REMARK  204  A    between atoms: _506  and  _507
REMARK  205  A    between atoms: _507  and  _508
REMARK  206  A    between atoms: _510  and  _512
REMARK  207  A    between atoms: _512  and  _513
REMARK  208  A    between atoms: _512  and  _515
REMARK  209  A    between atoms: _515  and  _516
REMARK  210  A    between atoms: _519  and  _521
REMARK  211  A    between atoms: _521  and  _522
REMARK  212  A    between atoms: _521  and  _524
REMARK  213  A    between atoms: _524  and  _525
REMARK  214  A    between atoms: _526  and  ZN_632
REMARK  215  A    between atoms: _530  and  _532
REMARK  216  A    between atoms: _532  and  _533
REMARK  217  A    between atoms: _532  and  _535
REMARK  218  A    between atoms: _535  and  _536
REMARK  219  A    between atoms: _536  and  _537
REMARK  220  A    between atoms: _537  and  _538
REMARK  221  A    between atoms: _547  and  _549
REMARK  222  A    between atoms: _549  and  _550
REMARK  223  A    between atoms: _553  and  _555
REMARK  224  A    between atoms: _555  and  _556
REMARK  225  A    between atoms: _555  and  _558
REMARK  226  A    between atoms: _558  and  _559
REMARK  227  A    between atoms: _562  and  _564
REMARK  228  A    between atoms: _564  and  _565
REMARK  229  A    between atoms: _564  and  _567
REMARK  230  A    between atoms: _567  and  _568
REMARK  231  A    between atoms: _571  and  _573
REMARK  232  A    between atoms: _573  and  _574
REMARK  233  A    between atoms: _576  and  _578
REMARK  234  A    between atoms: _578  and  _579
REMARK  235  A    between atoms: _578  and  _581
REMARK  236  A    between atoms: _581  and  _582
REMARK  237  A    between atoms: _584  and  _586
REMARK  238  A    between atoms: _586  and  _587
REMARK  239  A    between atoms: _586  and  _589
REMARK  240  A    between atoms: _589  and  _590
REMARK  241  A    between atoms: _590  and  _591
REMARK  242  A    between atoms: _593  and  _595
REMARK  243  A    between atoms: _595  and  _596
REMARK  244  A    between atoms: _595  and  _598
REMARK  245  A    between atoms: _598  and  _599
REMARK  246  A    between atoms: _599  and  _600
REMARK  247  A    between atoms: _603  and  _605
REMARK  248  A    between atoms: _605  and  _606
REMARK  249  A    between atoms: _605  and  _608
REMARK  250  A    between atoms: _608  and  _609
REMARK  251  A    between atoms: _609  and  _610
REMARK  252  A    between atoms: _610  and  _611
REMARK  253  A    between atoms: _620  and  _622
REMARK  254  A    between atoms: _622  and  _623
REMARK  255  A    between atoms: _622  and  _625
REMARK  256  A    between atoms: _625  and  _626
REMARK                            x       y       z     vdW  Elec       q    Type
REMARK                         _______ _______ _______ _____ _____    ______ ____
ROOT
ATOM      1  CG  TYR A   1     -12.615 -36.017   7.608  0.00  0.00    -0.020 A 
ATOM      2  CD2 TYR A   1     -12.120 -37.058   8.405  0.00  0.00    -0.001 A 
ATOM      3  CE2 TYR A   1     -12.800 -37.478   9.532  0.00  0.00    +0.036 A 
ATOM      4  CZ  TYR A   1     -13.981 -36.862   9.880  0.00  0.00    +0.134 A 
ATOM      5  CE1 TYR A   1     -14.511 -35.830   9.128  0.00  0.00    +0.036 A 
ATOM      6  CD1 TYR A   1     -13.833 -35.420   7.980  0.00  0.00    -0.001 A 
ENDROOT
BRANCH   4   7
ATOM      7  OH  TYR A   1     -14.651 -37.267  10.997  0.00  0.00    -0.506 OA
ATOM      8  HH  TYR A   1     -14.071 -37.146  11.790  0.00  0.00    +0.292 HD
ENDBRANCH   4   7
BRANCH   1   9
ATOM      9  CB  TYR A   1     -11.893 -35.596   6.336  0.00  0.00    +0.051 C 
BRANCH   9  10
ATOM     10  CA  TYR A   1     -12.204 -36.526   5.135  0.00  0.00    +0.137 C 
BRANCH  10  11
ATOM     11  N   TYR A   1     -10.997 -36.791   4.386  0.00  0.00    -0.239 NA
ATOM     12  H   TYR A   1     -10.762 -36.192   3.569  0.00  0.00    +0.142 HD
ENDBRANCH  10  11
BRANCH  10  13
ATOM     13  C   TYR A   1     -13.261 -35.896   4.221  0.00  0.00    +0.224 C 
ATOM     14  O   TYR A   1     -14.259 -35.376   4.716  0.00  0.00    -0.287 OA
ENDBRANCH  10  13
ENDBRANCH   9  10
ENDBRANCH   1   9
TORSDOF 5
REMARK  Name = ../refined-set-2016/4hwp/4hwp_pocket.pdb
REMARK  256 active torsions:
REMARK  status: ('A' for Active; 'I' for Inactive)
REMARK    1  A    between atoms: _1  and  _3
REMARK    2  A    between atoms: _3  and  _4
REMARK    3  A    between atoms: _6  and  _8
REMARK    4  A    between atoms: _8  and  _9
REMARK    5  A    between atoms: _8  and  _11
REMARK    6  A    between atoms: _11  and  _12
REMARK    7  A    between atoms: _17  and  _19
REMARK    8  A    between atoms: _19  and  _20
REMARK    9  A    between atoms: _19  and  _22
REMARK   10  A    between atoms: _22  and  _23
REMARK   11  A    between atoms: _28  and  _29
REMARK   12  A    between atoms: _31  and  _33
REMARK   13  A    between atoms: _33  and  _34
REMARK   14  A    between atoms: _38  and  _39
REMARK   15  A    between atoms: _44  and  _46
REMARK   16  A    between atoms: _46  and  _47
REMARK   17  A    between atoms: _46  and  _49
REMARK   18  A    between atoms: _49  and  _50
REMARK   19  A    between atoms: _50  and  _51
REMARK   20  A    between atoms: _53  and  _55
REMARK   21  A    between atoms: _55  and  _56
REMARK   22  A    between atoms: _55  and  _58
REMARK   23  A    between atoms: _58  and  _59
REMARK   24  A    between atoms: _64  and  _66
REMARK   25  A    between atoms: _66  and  _67
REMARK   26  A    between atoms: _66  and  _69
REMARK   27  A    between atoms: _69  and  _70
REMARK   28  A    between atoms: _70  and  ZN_632
REMARK   29  A    between atoms: _72  and  _73
REMARK   30  A    between atoms: _78  and  _80
REMARK   31  A    between atoms: _80  and  _81
REMARK   32  A    between atoms: _80  and  _83
REMARK   33  A    between atoms: _83  and  _84
REMARK   34  A    between atoms: _89  and  _91
REMARK   35  A    between atoms: _91  and  _92
REMARK   36  A    between atoms: _91  and  _94
REMARK   37  A    between atoms: _96  and  _98
REMARK   38  A    between atoms: _98  and  _99
REMARK   39  A    between atoms: _98  and  _101
REMARK   40  A    between atoms: _101  and  _102
REMARK   41  A    between atoms: _107  and  _109
REMARK   42  A    between atoms: _109  and  _110
REMARK   43  A    between atoms: _109  and  _112
REMARK   44  A    between atoms: _112  and  _113
REMARK   45  A    between atoms: _113  and  _114
REMARK   46  A    between atoms: _114  and  _115
REMARK   47  A    between atoms: _124  and  _126
REMARK   48  A    between atoms: _126  and  _127
REMARK   49  A    between atoms: _126  and  _129
REMARK   50  A    between atoms: _129  and  _130
REMARK   51  A    between atoms: _135  and  _137
REMARK   52  A    between atoms: _137  and  _138
REMARK   53  A    between atoms: _137  and  _140
REMARK   54  A    between atoms: _140  and  _141
REMARK   55  A    between atoms: _141  and  _142
REMARK   56  A    between atoms: _146  and  _147
REMARK   57  A    between atoms: _152  and  _154
REMARK   58  A    between atoms: _154  and  _155
REMARK   59  A    between atoms: _154  and  _157
REMARK   60  A    between atoms: _157  and  _158
REMARK   61  A    between atoms: _160  and  _162
REMARK   62  A    between atoms: _162  and  _163
REMARK   63  A    between atoms: _162  and  _165
REMARK   64  A    between atoms: _165  and  _166
REMARK   65  A    between atoms: _169  and  _171
REMARK   66  A    between atoms: _171  and  _172
REMARK   67  A    between atoms: _171  and  _174
REMARK   68  A    between atoms: _174  and  _175
REMARK   69  A    between atoms: _180  and  _182
REMARK   70  A    between atoms: _182  and  _183
REMARK   71  A    between atoms: _185  and  _187
REMARK   72  A    between atoms: _187  and  _188
REMARK   73  A    between atoms: _187  and  _190
REMARK   74  A    between atoms: _190  and  _191
REMARK   75  A    between atoms: _194  and  _196
REMARK   76  A    between atoms: _196  and  _197
REMARK   77  A    between atoms: _196  and  _199
REMARK   78  A    between atoms: _199  and  _200
REMARK   79  A    between atoms: _200  and  _201
REMARK   80  A    between atoms: _203  and  _205
REMARK   81  A    between atoms: _205  and  _206
REMARK   82  A    between atoms: _205  and  _208
REMARK   83  A    between atoms: _208  and  _209
REMARK   84  A    between atoms: _209  and  _210
REMARK   85  A    between atoms: _210  and  _211
REMARK   86  A    between atoms: _220  and  _222
REMARK   87  A    between atoms: _222  and  _223
REMARK   88  A    between atoms: _222  and  _225
REMARK   89  A    between atoms: _228  and  _230
REMARK   90  A    between atoms: _230  and  _231
REMARK   91  A    between atoms: _230  and  _233
REMARK   92  A    between atoms: _233  and  _234
REMARK   93  A    between atoms: _234  and  _235
REMARK   94  A    between atoms: _235  and  _236
REMARK   95  A    between atoms: _245  and  _247
REMARK   96  A    between atoms: _247  and  _248
REMARK   97  A    between atoms: _250  and  _252
REMARK   98  A    between atoms: _252  and  _253
REMARK   99  A    between atoms: _252  and  _255
REMARK  100  A    between atoms: _255  and  _256
REMARK  101  A    between atoms: _262  and  _264
REMARK  102  A    between atoms: _264  and  _265
REMARK  103  A    between atoms: _264  and  _267
REMARK  104  A    between atoms: _267  and  _268
REMARK  105  A    between atoms: _271  and  _273
REMARK  106  A    between atoms: _273  and  _274
REMARK  107  A    between atoms: _273  and  _276
REMARK  108  A    between atoms: _276  and  _277
REMARK  109  A    between atoms: _277  and  _278
REMARK  110  A    between atoms: _283  and  _285
REMARK  111  A    between atoms: _285  and  _286
REMARK  112  A    between atoms: _285  and  _288
REMARK  113  A    between atoms: _288  and  _289
REMARK  114  A    between atoms: _292  and  _294
REMARK  115  A    between atoms: _294  and  _295
REMARK  116  A    between atoms: _294  and  _297
REMARK  117  A    between atoms: _297  and  _298
REMARK  118  A    between atoms: _301  and  _303
REMARK  119  A    between atoms: _303  and  _304
REMARK  120  A    between atoms: _307  and  _309
REMARK  121  A    between atoms: _309  and  _310
REMARK  122  A    between atoms: _309  and  _312
REMARK  123  A    between atoms: _312  and  _313
REMARK  124  A    between atoms: _317  and  ZN_632
REMARK  125  A    between atoms: _318  and  _320
REMARK  126  A    between atoms: _320  and  _321
REMARK  127  A    between atoms: _320  and  _323
REMARK  128  A    between atoms: _323  and  _324
REMARK  129  A    between atoms: _327  and  _329
REMARK  130  A    between atoms: _329  and  _330
REMARK  131  A    between atoms: _329  and  _332
REMARK  132  A    between atoms: _332  and  _333
REMARK  133  A    between atoms: _335  and  _337
REMARK  134  A    between atoms: _337  and  _338
REMARK  135  A    between atoms: _337  and  _340
REMARK  136  A    between atoms: _340  and  _341
REMARK  137  A    between atoms: _341  and  _342
REMARK  138  A    between atoms: _345  and  _347
REMARK  139  A    between atoms: _347  and  _348
REMARK  140  A    between atoms: _350  and  _352
REMARK  141  A    between atoms: _352  and  _353
REMARK  142  A    between atoms: _356  and  _358
REMARK  143  A    between atoms: _358  and  _359
REMARK  144  A    between atoms: _358  and  _361
REMARK  145  A    between atoms: _361  and  _362
REMARK  146  A    between atoms: _368  and  _370
REMARK  147  A    between atoms: _370  and  _371
REMARK  148  A    between atoms: _370  and  _373
REMARK  149  A    between atoms: _373  and  _374
REMARK  150  A    between atoms: _379  and  _380
REMARK  151  A    between atoms: _382  and  _384
REMARK  152  A    between atoms: _384  and  _385
REMARK  153  A    between atoms: _384  and  _387
REMARK  154  A    between atoms: _387  and  _388
REMARK  155  A    between atoms: _388  and  _389
REMARK  156  A    between atoms: _389  and  _390
REMARK  157  A    between atoms: _390  and  _391
REMARK  158  A    between atoms: _395  and  _397
REMARK  159  A    between atoms: _397  and  _398
REMARK  160  A    between atoms: _397  and  _400
REMARK  161  A    between atoms: _400  and  _401
REMARK  162  A    between atoms: _404  and  _406
REMARK  163  A    between atoms: _406  and  _407
REMARK  164  A    between atoms: _406  and  _409
REMARK  165  A    between atoms: _409  and  _410
REMARK  166  A    between atoms: _410  and  _411
REMARK  167  A    between atoms: _414  and  _416
REMARK  168  A    between atoms: _416  and  _417
REMARK  169  A    between atoms: _416  and  _419
REMARK  170  A    between atoms: _419  and  _420
REMARK  171  A    between atoms: _430  and  _432
REMARK  172  A    between atoms: _432  and  _433
REMARK  173  A    between atoms: _432  and  _435
REMARK  174  A    between atoms: _435  and  _436
REMARK  175  A    between atoms: _436  and  _437
REMARK  176  A    between atoms: _442  and  _444
REMARK  177  A    between atoms: _444  and  _445
REMARK  178  A    between atoms: _444  and  _447
REMARK  179  A    between atoms: _449  and  _451
REMARK  180  A    between atoms: _451  and  _452
REMARK  181  A    between atoms: _454  and  _456
REMARK  182  A    between atoms: _456  and  _457
REMARK  183  A    between atoms: _456  and  _459
REMARK  184  A    between atoms: _459  and  _460
REMARK  185  A    between atoms: _463  and  _465
REMARK  186  A    between atoms: _465  and  _466
REMARK  187  A    between atoms: _465  and  _468
REMARK  188  A    between atoms: _471  and  _473
REMARK  189  A    between atoms: _473  and  _474
REMARK  190  A    between atoms: _473  and  _476
REMARK  191  A    between atoms: _476  and  _477
REMARK  192  A    between atoms: _477  and  _478
REMARK  193  A    between atoms: _483  and  _485
REMARK  194  A    between atoms: _485  and  _486
REMARK  195  A    between atoms: _485  and  _488
REMARK  196  A    between atoms: _488  and  _489
REMARK  197  A    between atoms: _492  and  _494
REMARK  198  A    between atoms: _494  and  _495
REMARK  199  A    between atoms: _494  and  _497
REMARK  200  A    between atoms: _497  and  _498
REMARK  201  A    between atoms: _501  and  _503
REMARK  202  A    between atoms: _503  and  _504
REMARK  203  A    between atoms: _503  and  _506
REMARK  204  A    between atoms: _506  and  _507
REMARK  205  A    between atoms: _507  and  _508
REMARK  206  A    between atoms: _510  and  _512
REMARK  207  A    between atoms: _512  and  _513
REMARK  208  A    between atoms: _512  and  _515
REMARK  209  A    between atoms: _515  and  _516
REMARK  210  A    between atoms: _519  and  _521
REMARK  211  A    between atoms: _521  and  _522
REMARK  212  A    between atoms: _521  and  _524
REMARK  213  A    between atoms: _524  and  _525
REMARK  214  A    between atoms: _526  and  ZN_632
REMARK  215  A    between atoms: _530  and  _532
REMARK  216  A    between atoms: _532  and  _533
REMARK  217  A    between atoms: _532  and  _535
REMARK  218  A    between atoms: _535  and  _536
REMARK  219  A    between atoms: _536  and  _537
REMARK  220  A    between atoms: _537  and  _538
REMARK  221  A    between atoms: _547  and  _549
REMARK  222  A    between atoms: _549  and  _550
REMARK  223  A    between atoms: _553  and  _555
REMARK  224  A    between atoms: _555  and  _556
REMARK  225  A    between atoms: _555  and  _558
REMARK  226  A    between atoms: _558  and  _559
REMARK  227  A    between atoms: _562  and  _564
REMARK  228  A    between atoms: _564  and  _565
REMARK  229  A    between atoms: _564  and  _567
REMARK  230  A    between atoms: _567  and  _568
REMARK  231  A    between atoms: _571  and  _573
REMARK  232  A    between atoms: _573  and  _574
REMARK  233  A    between atoms: _576  and  _578
REMARK  234  A    between atoms: _578  and  _579
REMARK  235  A    between atoms: _578  and  _581
REMARK  236  A    between atoms: _581  and  _582
REMARK  237  A    between atoms: _584  and  _586
REMARK  238  A    between atoms: _586  and  _587
REMARK  239  A    between atoms: _586  and  _589
REMARK  240  A    between atoms: _589  and  _590
REMARK  241  A    between atoms: _590  and  _591
REMARK  242  A    between atoms: _593  and  _595
REMARK  243  A    between atoms: _595  and  _596
REMARK  244  A    between atoms: _595  and  _598
REMARK  245  A    between atoms: _598  and  _599
REMARK  246  A    between atoms: _599  and  _600
REMARK  247  A    between atoms: _603  and  _605
REMARK  248  A    between atoms: _605  and  _606
REMARK  249  A    between atoms: _605  and  _608
REMARK  250  A    between atoms: _608  and  _609
REMARK  251  A    between atoms: _609  and  _610
REMARK  252  A    between atoms: _610  and  _611
REMARK  253  A    between atoms: _620  and  _622
REMARK  254  A    between atoms: _622  and  _623
REMARK  255  A    between atoms: _622  and  _625
REMARK  256  A    between atoms: _625  and  _626
REMARK                            x       y       z     vdW  Elec       q    Type
REMARK                         _______ _______ _______ _____ _____    ______ ____
ROOT
ATOM      1  CA  ALA A   1     -18.155 -36.240   5.480  0.00  0.00    +0.133 C 
ATOM      2  CB  ALA A   1     -17.455 -36.712   6.753  0.00  0.00    +0.027 C 
ENDROOT
BRANCH   1   3
ATOM      3  N   ALA A   1     -17.393 -36.662   4.321  0.00  0.00    -0.239 NA
ATOM      4  H   ALA A   1     -16.357 -36.711   4.392  0.00  0.00    +0.142 HD
ENDBRANCH   1   3
BRANCH   1   5
ATOM      5  C   ALA A   1     -18.371 -34.722   5.519  0.00  0.00    +0.224 C 
ATOM      6  O   ALA A   1     -19.155 -34.235   6.326  0.00  0.00    -0.287 OA
ENDBRANCH   1   5
TORSDOF 2
REMARK  Name = ../refined-set-2016/4hwp/4hwp_pocket.pdb
REMARK  256 active torsions:
REMARK  status: ('A' for Active; 'I' for Inactive)
REMARK    1  A    between atoms: _1  and  _3
REMARK    2  A    between atoms: _3  and  _4
REMARK    3  A    between atoms: _6  and  _8
REMARK    4  A    between atoms: _8  and  _9
REMARK    5  A    between atoms: _8  and  _11
REMARK    6  A    between atoms: _11  and  _12
REMARK    7  A    between atoms: _17  and  _19
REMARK    8  A    between atoms: _19  and  _20
REMARK    9  A    between atoms: _19  and  _22
REMARK   10  A    between atoms: _22  and  _23
REMARK   11  A    between atoms: _28  and  _29
REMARK   12  A    between atoms: _31  and  _33
REMARK   13  A    between atoms: _33  and  _34
REMARK   14  A    between atoms: _38  and  _39
REMARK   15  A    between atoms: _44  and  _46
REMARK   16  A    between atoms: _46  and  _47
REMARK   17  A    between atoms: _46  and  _49
REMARK   18  A    between atoms: _49  and  _50
REMARK   19  A    between atoms: _50  and  _51
REMARK   20  A    between atoms: _53  and  _55
REMARK   21  A    between atoms: _55  and  _56
REMARK   22  A    between atoms: _55  and  _58
REMARK   23  A    between atoms: _58  and  _59
REMARK   24  A    between atoms: _64  and  _66
REMARK   25  A    between atoms: _66  and  _67
REMARK   26  A    between atoms: _66  and  _69
REMARK   27  A    between atoms: _69  and  _70
REMARK   28  A    between atoms: _70  and  ZN_632
REMARK   29  A    between atoms: _72  and  _73
REMARK   30  A    between atoms: _78  and  _80
REMARK   31  A    between atoms: _80  and  _81
REMARK   32  A    between atoms: _80  and  _83
REMARK   33  A    between atoms: _83  and  _84
REMARK   34  A    between atoms: _89  and  _91
REMARK   35  A    between atoms: _91  and  _92
REMARK   36  A    between atoms: _91  and  _94
REMARK   37  A    between atoms: _96  and  _98
REMARK   38  A    between atoms: _98  and  _99
REMARK   39  A    between atoms: _98  and  _101
REMARK   40  A    between atoms: _101  and  _102
REMARK   41  A    between atoms: _107  and  _109
REMARK   42  A    between atoms: _109  and  _110
REMARK   43  A    between atoms: _109  and  _112
REMARK   44  A    between atoms: _112  and  _113
REMARK   45  A    between atoms: _113  and  _114
REMARK   46  A    between atoms: _114  and  _115
REMARK   47  A    between atoms: _124  and  _126
REMARK   48  A    between atoms: _126  and  _127
REMARK   49  A    between atoms: _126  and  _129
REMARK   50  A    between atoms: _129  and  _130
REMARK   51  A    between atoms: _135  and  _137
REMARK   52  A    between atoms: _137  and  _138
REMARK   53  A    between atoms: _137  and  _140
REMARK   54  A    between atoms: _140  and  _141
REMARK   55  A    between atoms: _141  and  _142
REMARK   56  A    between atoms: _146  and  _147
REMARK   57  A    between atoms: _152  and  _154
REMARK   58  A    between atoms: _154  and  _155
REMARK   59  A    between atoms: _154  and  _157
REMARK   60  A    between atoms: _157  and  _158
REMARK   61  A    between atoms: _160  and  _162
REMARK   62  A    between atoms: _162  and  _163
REMARK   63  A    between atoms: _162  and  _165
REMARK   64  A    between atoms: _165  and  _166
REMARK   65  A    between atoms: _169  and  _171
REMARK   66  A    between atoms: _171  and  _172
REMARK   67  A    between atoms: _171  and  _174
REMARK   68  A    between atoms: _174  and  _175
REMARK   69  A    between atoms: _180  and  _182
REMARK   70  A    between atoms: _182  and  _183
REMARK   71  A    between atoms: _185  and  _187
REMARK   72  A    between atoms: _187  and  _188
REMARK   73  A    between atoms: _187  and  _190
REMARK   74  A    between atoms: _190  and  _191
REMARK   75  A    between atoms: _194  and  _196
REMARK   76  A    between atoms: _196  and  _197
REMARK   77  A    between atoms: _196  and  _199
REMARK   78  A    between atoms: _199  and  _200
REMARK   79  A    between atoms: _200  and  _201
REMARK   80  A    between atoms: _203  and  _205
REMARK   81  A    between atoms: _205  and  _206
REMARK   82  A    between atoms: _205  and  _208
REMARK   83  A    between atoms: _208  and  _209
REMARK   84  A    between atoms: _209  and  _210
REMARK   85  A    between atoms: _210  and  _211
REMARK   86  A    between atoms: _220  and  _222
REMARK   87  A    between atoms: _222  and  _223
REMARK   88  A    between atoms: _222  and  _225
REMARK   89  A    between atoms: _228  and  _230
REMARK   90  A    between atoms: _230  and  _231
REMARK   91  A    between atoms: _230  and  _233
REMARK   92  A    between atoms: _233  and  _234
REMARK   93  A    between atoms: _234  and  _235
REMARK   94  A    between atoms: _235  and  _236
REMARK   95  A    between atoms: _245  and  _247
REMARK   96  A    between atoms: _247  and  _248
REMARK   97  A    between atoms: _250  and  _252
REMARK   98  A    between atoms: _252  and  _253
REMARK   99  A    between atoms: _252  and  _255
REMARK  100  A    between atoms: _255  and  _256
REMARK  101  A    between atoms: _262  and  _264
REMARK  102  A    between atoms: _264  and  _265
REMARK  103  A    between atoms: _264  and  _267
REMARK  104  A    between atoms: _267  and  _268
REMARK  105  A    between atoms: _271  and  _273
REMARK  106  A    between atoms: _273  and  _274
REMARK  107  A    between atoms: _273  and  _276
REMARK  108  A    between atoms: _276  and  _277
REMARK  109  A    between atoms: _277  and  _278
REMARK  110  A    between atoms: _283  and  _285
REMARK  111  A    between atoms: _285  and  _286
REMARK  112  A    between atoms: _285  and  _288
REMARK  113  A    between atoms: _288  and  _289
REMARK  114  A    between atoms: _292  and  _294
REMARK  115  A    between atoms: _294  and  _295
REMARK  116  A    between atoms: _294  and  _297
REMARK  117  A    between atoms: _297  and  _298
REMARK  118  A    between atoms: _301  and  _303
REMARK  119  A    between atoms: _303  and  _304
REMARK  120  A    between atoms: _307  and  _309
REMARK  121  A    between atoms: _309  and  _310
REMARK  122  A    between atoms: _309  and  _312
REMARK  123  A    between atoms: _312  and  _313
REMARK  124  A    between atoms: _317  and  ZN_632
REMARK  125  A    between atoms: _318  and  _320
REMARK  126  A    between atoms: _320  and  _321
REMARK  127  A    between atoms: _320  and  _323
REMARK  128  A    between atoms: _323  and  _324
REMARK  129  A    between atoms: _327  and  _329
REMARK  130  A    between atoms: _329  and  _330
REMARK  131  A    between atoms: _329  and  _332
REMARK  132  A    between atoms: _332  and  _333
REMARK  133  A    between atoms: _335  and  _337
REMARK  134  A    between atoms: _337  and  _338
REMARK  135  A    between atoms: _337  and  _340
REMARK  136  A    between atoms: _340  and  _341
REMARK  137  A    between atoms: _341  and  _342
REMARK  138  A    between atoms: _345  and  _347
REMARK  139  A    between atoms: _347  and  _348
REMARK  140  A    between atoms: _350  and  _352
REMARK  141  A    between atoms: _352  and  _353
REMARK  142  A    between atoms: _356  and  _358
REMARK  143  A    between atoms: _358  and  _359
REMARK  144  A    between atoms: _358  and  _361
REMARK  145  A    between atoms: _361  and  _362
REMARK  146  A    between atoms: _368  and  _370
REMARK  147  A    between atoms: _370  and  _371
REMARK  148  A    between atoms: _370  and  _373
REMARK  149  A    between atoms: _373  and  _374
REMARK  150  A    between atoms: _379  and  _380
REMARK  151  A    between atoms: _382  and  _384
REMARK  152  A    between atoms: _384  and  _385
REMARK  153  A    between atoms: _384  and  _387
REMARK  154  A    between atoms: _387  and  _388
REMARK  155  A    between atoms: _388  and  _389
REMARK  156  A    between atoms: _389  and  _390
REMARK  157  A    between atoms: _390  and  _391
REMARK  158  A    between atoms: _395  and  _397
REMARK  159  A    between atoms: _397  and  _398
REMARK  160  A    between atoms: _397  and  _400
REMARK  161  A    between atoms: _400  and  _401
REMARK  162  A    between atoms: _404  and  _406
REMARK  163  A    between atoms: _406  and  _407
REMARK  164  A    between atoms: _406  and  _409
REMARK  165  A    between atoms: _409  and  _410
REMARK  166  A    between atoms: _410  and  _411
REMARK  167  A    between atoms: _414  and  _416
REMARK  168  A    between atoms: _416  and  _417
REMARK  169  A    between atoms: _416  and  _419
REMARK  170  A    between atoms: _419  and  _420
REMARK  171  A    between atoms: _430  and  _432
REMARK  172  A    between atoms: _432  and  _433
REMARK  173  A    between atoms: _432  and  _435
REMARK  174  A    between atoms: _435  and  _436
REMARK  175  A    between atoms: _436  and  _437
REMARK  176  A    between atoms: _442  and  _444
REMARK  177  A    between atoms: _444  and  _445
REMARK  178  A    between atoms: _444  and  _447
REMARK  179  A    between atoms: _449  and  _451
REMARK  180  A    between atoms: _451  and  _452
REMARK  181  A    between atoms: _454  and  _456
REMARK  182  A    between atoms: _456  and  _457
REMARK  183  A    between atoms: _456  and  _459
REMARK  184  A    between atoms: _459  and  _460
REMARK  185  A    between atoms: _463  and  _465
REMARK  186  A    between atoms: _465  and  _466
REMARK  187  A    between atoms: _465  and  _468
REMARK  188  A    between atoms: _471  and  _473
REMARK  189  A    between atoms: _473  and  _474
REMARK  190  A    between atoms: _473  and  _476
REMARK  191  A    between atoms: _476  and  _477
REMARK  192  A    between atoms: _477  and  _478
REMARK  193  A    between atoms: _483  and  _485
REMARK  194  A    between atoms: _485  and  _486
REMARK  195  A    between atoms: _485  and  _488
REMARK  196  A    between atoms: _488  and  _489
REMARK  197  A    between atoms: _492  and  _494
REMARK  198  A    between atoms: _494  and  _495
REMARK  199  A    between atoms: _494  and  _497
REMARK  200  A    between atoms: _497  and  _498
REMARK  201  A    between atoms: _501  and  _503
REMARK  202  A    between atoms: _503  and  _504
REMARK  203  A    between atoms: _503  and  _506
REMARK  204  A    between atoms: _506  and  _507
REMARK  205  A    between atoms: _507  and  _508
REMARK  206  A    between atoms: _510  and  _512
REMARK  207  A    between atoms: _512  and  _513
REMARK  208  A    between atoms: _512  and  _515
REMARK  209  A    between atoms: _515  and  _516
REMARK  210  A    between atoms: _519  and  _521
REMARK  211  A    between atoms: _521  and  _522
REMARK  212  A    between atoms: _521  and  _524
REMARK  213  A    between atoms: _524  and  _525
REMARK  214  A    between atoms: _526  and  ZN_632
REMARK  215  A    between atoms: _530  and  _532
REMARK  216  A    between atoms: _532  and  _533
REMARK  217  A    between atoms: _532  and  _535
REMARK  218  A    between atoms: _535  and  _536
REMARK  219  A    between atoms: _536  and  _537
REMARK  220  A    between atoms: _537  and  _538
REMARK  221  A    between atoms: _547  and  _549
REMARK  222  A    between atoms: _549  and  _550
REMARK  223  A    between atoms: _553  and  _555
REMARK  224  A    between atoms: _555  and  _556
REMARK  225  A    between atoms: _555  and  _558
REMARK  226  A    between atoms: _558  and  _559
REMARK  227  A    between atoms: _562  and  _564
REMARK  228  A    between atoms: _564  and  _565
REMARK  229  A    between atoms: _564  and  _567
REMARK  230  A    between atoms: _567  and  _568
REMARK  231  A    between atoms: _571  and  _573
REMARK  232  A    between atoms: _573  and  _574
REMARK  233  A    between atoms: _576  and  _578
REMARK  234  A    between atoms: _578  and  _579
REMARK  235  A    between atoms: _578  and  _581
REMARK  236  A    between atoms: _581  and  _582
REMARK  237  A    between atoms: _584  and  _586
REMARK  238  A    between atoms: _586  and  _587
REMARK  239  A    between atoms: _586  and  _589
REMARK  240  A    between atoms: _589  and  _590
REMARK  241  A    between atoms: _590  and  _591
REMARK  242  A    between atoms: _593  and  _595
REMARK  243  A    between atoms: _595  and  _596
REMARK  244  A    between atoms: _595  and  _598
REMARK  245  A    between atoms: _598  and  _599
REMARK  246  A    between atoms: _599  and  _600
REMARK  247  A    between atoms: _603  and  _605
REMARK  248  A    between atoms: _605  and  _606
REMARK  249  A    between atoms: _605  and  _608
REMARK  250  A    between atoms: _608  and  _609
REMARK  251  A    between atoms: _609  and  _610
REMARK  252  A    between atoms: _610  and  _611
REMARK  253  A    between atoms: _620  and  _622
REMARK  254  A    between atoms: _622  and  _623
REMARK  255  A    between atoms: _622  and  _625
REMARK  256  A    between atoms: _625  and  _626
REMARK                            x       y       z     vdW  Elec       q    Type
REMARK                         _______ _______ _______ _____ _____    ______ ____
ROOT
ATOM      1  N   UNK A   4      -8.572 -30.377  18.470  0.00  0.00    +0.000 N 
ATOM      2  C   UNK A   4      -7.356 -30.128  18.989  0.00  0.00    +0.000 A 
ATOM      3  C   UNK A   4      -7.406 -28.898  19.595  0.00  0.00    +0.000 A 
ATOM      4  N   UNK A   4      -8.661 -28.454  19.447  0.00  0.00    +0.000 NA
ATOM      5  C   UNK A   4      -9.365 -29.350  18.725  0.00  0.00    +0.000 A 
ENDROOT
BRANCH   1   6
ATOM      6 ZN   UNK A   4      -9.164 -31.960  17.185  0.00  0.00    +0.000 Zn
BRANCH   6   7
ATOM      7  N   UNK A   4      -7.227 -32.907  17.376  0.00  0.00    +0.000 N 
ATOM      8  C   UNK A   4      -6.597 -33.324  18.472  0.00  0.00    +0.000 A 
ATOM      9  C   UNK A   4      -5.218 -33.379  18.143  0.00  0.00    +0.000 A 
ATOM     10  N   UNK A   4      -5.088 -32.911  16.876  0.00  0.00    +0.000 NA
ATOM     11  C   UNK A   4      -6.330 -32.628  16.397  0.00  0.00    +0.000 A 
BRANCH   8  12
ATOM     12  C   UNK A   4      -7.368 -33.726  19.698  0.00  0.00    +0.000 C 
BRANCH  12  13
ATOM     13  C   UNK A   4      -6.829 -33.178  21.029  0.00  0.00    +0.000 C 
BRANCH  13  14
ATOM     14  C   UNK A   4      -7.517 -34.008  22.055  0.00  0.00    +0.000 C 
ATOM     15  N   UNK A   4      -8.566 -33.497  22.676  0.00  0.00    +0.000 N 
ATOM     16  H   UNK A   4      -8.824 -32.497  22.550  0.00  0.00    +0.000 HD
ATOM     17  O   UNK A   4      -7.158 -35.175  22.252  0.00  0.00    +0.000 OA
BRANCH  15  18
ATOM     18  C   UNK A   4      -9.355 -34.370  23.544  0.00  0.00    +0.000 C 
BRANCH  18  19
ATOM     19  C   UNK A   4     -10.788 -33.896  23.656  0.00  0.00    +0.000 C 
ATOM     20  N   PRO A   5     -11.717 -34.835  23.813  0.00  0.00    +0.000 N 
ATOM     21  H   PRO A   5     -11.463 -35.830  23.647  0.00  0.00    +0.000 HD
ATOM     22  O   UNK A   4     -11.029 -32.682  23.598  0.00  0.00    +0.000 OA
BRANCH  20  23
ATOM     23  CA  PRO A   5     -13.102 -34.504  24.217  0.00  0.00    +0.000 C 
ATOM     24  CB  PRO A   5     -14.072 -34.782  23.064  0.00  0.00    +0.000 C 
BRANCH  23  25
ATOM     25  C   PRO A   5     -13.365 -35.450  25.376  0.00  0.00    +0.000 C 
ATOM     26  N   ILE A   6     -14.060 -35.004  26.422  0.00  0.00    +0.000 N 
ATOM     27  H   ILE A   6     -14.515 -34.070  26.381  0.00  0.00    +0.000 HD
ATOM     28  O   PRO A   5     -12.900 -36.601  25.338  0.00  0.00    +0.000 OA
BRANCH  26  29
ATOM     29  CA  ILE A   6     -14.188 -35.844  27.658  0.00  0.00    +0.000 C 
BRANCH  29  30
ATOM     30  C   ILE A   6     -15.527 -36.560  27.528  0.00  0.00    +0.000 C 
ATOM     31  O   ILE A   6     -15.562 -37.796  27.541  0.00  0.00    +0.000 OA
ATOM     32  N   LEU A   7     -16.611 -35.790  27.365  0.00  0.00    +0.000 N 
ATOM     33  H   LEU A   7     -16.504 -34.756  27.358  0.00  0.00    +0.000 HD
BRANCH  32  34
ATOM     34  CA  LEU A   7     -17.944 -36.375  27.196  0.00  0.00    +0.000 C 
BRANCH  34  35
ATOM     35  C   LEU A   7     -18.018 -36.979  25.777  0.00  0.00    +0.000 C 
ATOM     36  O   LEU A   7     -18.587 -38.058  25.588  0.00  0.00    +0.000 OA
ATOM     37  N   GLY A   8     -17.369 -36.331  24.808  0.00  0.00    +0.000 N 
ATOM     38  H   GLY A   8     -16.837 -35.466  25.033  0.00  0.00    +0.000 HD
BRANCH  37  39
ATOM     39  CA  GLY A   8     -17.400 -36.830  23.421  0.00  0.00    +0.000 C 
BRANCH  39  40
ATOM     40  C   GLY A   8     -18.189 -35.875  22.553  0.00  0.00    +0.000 C 
ATOM     41  N   SER A   9     -19.439 -36.214  22.279  0.00  0.00    +0.000 N 
ATOM     42  H   SER A   9     -19.729 -37.213  22.272  0.00  0.00    +0.000 HD
ATOM     43  O   GLY A   8     -17.683 -34.813  22.148  0.00  0.00    +0.000 OA
BRANCH  41  44
ATOM     44  CA  SER A   9     -20.403 -35.154  21.986  0.00  0.00    +0.000 C 
BRANCH  44  45
ATOM     45  C   SER A   9     -21.463 -35.042  23.040  0.00  0.00    +0.000 C 
ATOM     46  O   SER A   9     -21.722 -36.034  23.739  0.00  0.00    +0.000 OA
ATOM     47  N   MET A  10     -22.026 -33.842  23.210  0.00  0.00    +0.000 N 
ATOM     48  H   MET A  10     -21.750 -33.059  22.583  0.00  0.00    +0.000 HD
BRANCH  47  49
ATOM     49  CA  MET A  10     -22.999 -33.607  24.232  0.00  0.00    +0.000 C 
BRANCH  49  50
ATOM     50  C   MET A  10     -24.215 -34.472  23.903  0.00  0.00    +0.000 C 
ATOM     51  O   MET A  10     -24.824 -35.019  24.819  0.00  0.00    +0.000 OA
ATOM     52  N   GLU A  11     -24.571 -34.547  22.610  0.00  0.00    +0.000 N 
ATOM     53  H   GLU A  11     -23.983 -34.070  21.897  0.00  0.00    +0.000 HD
BRANCH  52  54
ATOM     54  CA  GLU A  11     -25.770 -35.285  22.172  0.00  0.00    +0.000 C 
BRANCH  54  55
ATOM     55  C   GLU A  11     -25.597 -36.778  22.506  0.00  0.00    +0.000 C 
ATOM     56  O   GLU A  11     -26.469 -37.401  23.121  0.00  0.00    +0.000 OA
ATOM     57  N   ARG A  12     -24.478 -37.347  22.083  0.00  0.00    +0.000 N 
ATOM     58  H   ARG A  12     -23.784 -36.795  21.540  0.00  0.00    +0.000 HD
BRANCH  57  59
ATOM     59  CA  ARG A  12     -24.221 -38.766  22.386  0.00  0.00    +0.000 C 
BRANCH  59  60
ATOM     60  C   ARG A  12     -24.179 -39.026  23.899  0.00  0.00    +0.000 C 
ATOM     61  N   PHE A  13     -23.584 -38.116  24.670  0.00  0.00    +0.000 N 
ATOM     62  H   PHE A  13     -23.216 -37.240  24.247  0.00  0.00    +0.000 HD
ATOM     63  O   ARG A  12     -24.728 -40.035  24.378  0.00  0.00    +0.000 OA
BRANCH  61  64
ATOM     64  CA  PHE A  13     -23.445 -38.347  26.121  0.00  0.00    +0.000 C 
BRANCH  64  65
ATOM     65  C   PHE A  13     -24.847 -38.271  26.754  0.00  0.00    +0.000 C 
ATOM     66  O   PHE A  13     -25.194 -39.082  27.604  0.00  0.00    +0.000 OA
ENDBRANCH  64  65
BRANCH  64  67
ATOM     67  CB  PHE A  13     -22.415 -37.355  26.751  0.00  0.00    +0.000 C 
BRANCH  67  68
ATOM     68  CG  PHE A  13     -21.925 -37.775  28.112  0.00  0.00    +0.000 A 
ATOM     69  CD2 PHE A  13     -22.528 -37.292  29.264  0.00  0.00    +0.000 A 
ATOM     70  CE2 PHE A  13     -22.078 -37.675  30.528  0.00  0.00    +0.000 A 
ATOM     71  CZ  PHE A  13     -21.045 -38.604  30.640  0.00  0.00    +0.000 A 
ATOM     72  CE1 PHE A  13     -20.452 -39.103  29.492  0.00  0.00    +0.000 A 
ATOM     73  CD1 PHE A  13     -20.887 -38.690  28.237  0.00  0.00    +0.000 A 
ENDBRANCH  67  68
ENDBRANCH  64  67
ENDBRANCH  61  64
ENDBRANCH  59  60
BRANCH  59  74
ATOM     74  CB  ARG A  12     -22.932 -39.244  21.717  0.00  0.00    +0.000 C 
BRANCH  74  75
ATOM     75  CG  ARG A  12     -22.591 -40.725  22.013  0.00  0.00    +0.000 C 
BRANCH  75  76
ATOM     76  CD  ARG A  12     -21.342 -41.110  21.234  0.00  0.00    +0.000 C 
BRANCH  76  77
ATOM     77  NE  ARG A  12     -21.617 -41.175  19.794  0.00  0.00    +0.330 N 
ATOM     78  HE  ARG A  12     -22.591 -41.005  19.470  0.00  0.00    +0.000 HD
ATOM     79  CZ  ARG A  12     -20.685 -41.440  18.881  0.00  0.00    +0.000 C 
ATOM     80  NH2 ARG A  12     -19.432 -41.646  19.255  0.00  0.00    +0.330 N 
ATOM     81 HH21 ARG A  12     -19.176 -41.601  20.262  0.00  0.00    +0.000 HD
ATOM     82 HH22 ARG A  12     -18.704 -41.853  18.542  0.00  0.00    +0.000 HD
ATOM     83  NH1 ARG A  12     -21.009 -41.501  17.585  0.00  0.00    +0.330 N 
ATOM     84 HH11 ARG A  12     -21.992 -41.341  17.287  0.00  0.00    +0.000 HD
ATOM     85 HH12 ARG A  12     -20.278 -41.708  16.875  0.00  0.00    +0.000 HD
ENDBRANCH  76  77
ENDBRANCH  75  76
ENDBRANCH  74  75
ENDBRANCH  59  74
ENDBRANCH  57  59
ENDBRANCH  54  55
BRANCH  54  86
ATOM     86  CB  GLU A  11     -26.009 -35.099  20.666  0.00  0.00    +0.000 C 
BRANCH  86  87
ATOM     87  CG  GLU A  11     -26.425 -33.668  20.223  0.00  0.00    +0.000 C 
BRANCH  87  88
ATOM     88  CD  GLU A  11     -25.267 -32.674  20.135  0.00  0.00    +0.000 C 
ATOM     89  OE2 GLU A  11     -24.103 -33.023  20.377  0.00  0.00    +0.000 OA
ATOM     90  OE1 GLU A  11     -25.496 -31.507  19.747  0.00  0.00    +0.000 OA
ENDBRANCH  87  88
ENDBRANCH  86  87
ENDBRANCH  54  86
ENDBRANCH  52  54
ENDBRANCH  49  50
BRANCH  49  91
ATOM     91  CB  MET A  10     -23.421 -32.122  24.287  0.00  0.00    +0.000 C 
BRANCH  91  92
ATOM     92  CG  MET A  10     -22.242 -31.134  24.393  0.00  0.00    +0.000 C 
BRANCH  92  93
ATOM     93  SD  MET A  10     -21.417 -31.201  25.991  0.00  0.00    +0.000 S 
ATOM     94  CE  MET A  10     -22.637 -30.363  27.000  0.00  0.00    +0.000 C 
ENDBRANCH  92  93
ENDBRANCH  91  92
ENDBRANCH  49  91
ENDBRANCH  47  49
ENDBRANCH  44  45
BRANCH  44  95
ATOM     95  CB  SER A   9     -20.978 -35.280  20.607  0.00  0.00    +0.000 C 
BRANCH  95  96
ATOM     96  OG  SER A   9     -21.956 -36.278  20.551  0.00  0.00    +0.000 OA
ATOM     97  H   SER A   9     -22.315 -36.336  19.630  0.00  0.00    +0.000 HD
ENDBRANCH  95  96
ENDBRANCH  44  95
ENDBRANCH  41  44
ENDBRANCH  39  40
ENDBRANCH  37  39
ENDBRANCH  34  35
BRANCH  34  98
ATOM     98  CB  LEU A   7     -19.057 -35.339  27.407  0.00  0.00    +0.000 C 
BRANCH  98  99
ATOM     99  CG  LEU A   7     -19.082 -34.591  28.750  0.00  0.00    +0.000 C 
ATOM    100  CD2 LEU A   7     -18.833 -35.477  29.959  0.00  0.00    +0.000 C 
ATOM    101  CD1 LEU A   7     -20.401 -33.783  28.897  0.00  0.00    +0.000 C 
ENDBRANCH  98  99
ENDBRANCH  34  98
ENDBRANCH  32  34
ENDBRANCH  29  30
BRANCH  29 102
ATOM    102  CB  ILE A   6     -14.058 -35.017  28.974  0.00  0.00    +0.000 C 
ATOM    103  CG2 ILE A   6     -14.203 -35.901  30.249  0.00  0.00    +0.000 C 
BRANCH 102 104
ATOM    104  CG1 ILE A   6     -12.753 -34.157  28.989  0.00  0.00    +0.000 C 
ATOM    105  CD1 ILE A   6     -11.444 -34.948  28.887  0.00  0.00    +0.000 C 
ENDBRANCH 102 104
ENDBRANCH  29 102
ENDBRANCH  26  29
ENDBRANCH  23  25
ENDBRANCH  20  23
ENDBRANCH  18  19
BRANCH  18 106
ATOM    106  C   UNK A   4      -8.710 -34.570  24.946  0.00  0.00    +0.000 C 
BRANCH 106 107
ATOM    107  C   UNK A   4      -9.317 -33.797  26.126  0.00  0.00    +0.000 C 
BRANCH 107 108
ATOM    108  C   UNK A   4      -9.012 -32.318  26.020  0.00  0.00    +0.000 C 
BRANCH 108 109
ATOM    109  N   UNK A   4      -9.627 -31.598  27.167  0.00  0.00    +0.330 N 
ATOM    110  H   UNK A   4      -9.022 -31.395  27.988  0.00  0.00    +0.000 HD
ATOM    111  C   UNK A   4     -10.906 -31.190  27.221  0.00  0.00    +0.000 C 
ATOM    112  N   UNK A   4     -11.336 -30.566  28.320  0.00  0.00    +0.330 N 
ATOM    113  H   UNK A   4     -10.685 -30.404  29.114  0.00  0.00    +0.000 HD
ATOM    114  H   UNK A   4     -12.322 -30.242  28.382  0.00  0.00    +0.000 HD
ATOM    115  N   UNK A   4     -11.779 -31.419  26.245  0.00  0.00    +0.330 N 
ATOM    116  H   UNK A   4     -12.759 -31.082  26.334  0.00  0.00    +0.000 HD
ATOM    117  H   UNK A   4     -11.482 -31.935  25.392  0.00  0.00    +0.000 HD
ENDBRANCH 108 109
ENDBRANCH 107 108
ENDBRANCH 106 107
ENDBRANCH  18 106
ENDBRANCH  15  18
ENDBRANCH  13  14
BRANCH  13 118
ATOM    118  N   UNK A   4      -5.383 -33.416  21.145  0.00  0.00    +0.000 N 
ATOM    119  C   ILE A   2      -4.583 -32.536  21.743  0.00  0.00    +0.000 C 
ATOM    120  O   ILE A   2      -4.963 -31.428  22.073  0.00  0.00    +0.000 OA
ATOM    121  H   UNK A   4      -4.977 -34.289  20.752  0.00  0.00    +0.000 HD
BRANCH 119 122
ATOM    122  CA  ILE A   2      -3.130 -32.920  21.992  0.00  0.00    +0.000 C 
BRANCH 122 123
ATOM    123  N   ILE A   2      -2.319 -31.836  21.469  0.00  0.00    +0.000 N 
ATOM    124  H   ILE A   2      -2.187 -30.979  22.043  0.00  0.00    +0.000 HD
ATOM    125  C   MET A   1      -1.742 -31.911  20.277  0.00  0.00    +0.000 C 
ATOM    126  O   MET A   1      -1.660 -32.960  19.632  0.00  0.00    +0.000 OA
BRANCH 125 127
ATOM    127  CA  MET A   1      -1.079 -30.632  19.788  0.00  0.00    +0.000 C 
BRANCH 127 128
ATOM    128  N   MET A   1       0.323 -30.902  19.474  0.00  0.00    +0.000 NA
ATOM    129  H   MET A   1       0.571 -31.668  18.815  0.00  0.00    +0.000 HD
ENDBRANCH 127 128
BRANCH 127 130
ATOM    130  CB  MET A   1      -1.836 -30.024  18.583  0.00  0.00    +0.000 C 
BRANCH 130 131
ATOM    131  CG  MET A   1      -3.214 -29.429  18.950  0.00  0.00    +0.000 C 
BRANCH 131 132
ATOM    132  SD  MET A   1      -3.825 -28.365  17.597  0.00  0.00    +0.000 S 
ATOM    133  CE  MET A   1      -4.192 -29.647  16.364  0.00  0.00    +0.000 C 
ENDBRANCH 131 132
ENDBRANCH 130 131
ENDBRANCH 127 130
ENDBRANCH 125 127
ENDBRANCH 122 123
BRANCH 122 134
ATOM    134  CB  ILE A   2      -2.908 -33.060  23.515  0.00  0.00    +0.000 C 
ATOM    135  CG2 ILE A   2      -3.964 -34.017  24.123  0.00  0.00    +0.000 C 
BRANCH 134 136
ATOM    136  CG1 ILE A   2      -1.496 -33.562  23.748  0.00  0.00    +0.000 C 
ATOM    137  CD1 ILE A   2      -0.924 -33.291  25.148  0.00  0.00    +0.000 C 
ENDBRANCH 134 136
ENDBRANCH 122 134
ENDBRANCH 119 122
ENDBRANCH  13 118
ENDBRANCH  12  13
ENDBRANCH   8  12
ENDBRANCH   6   7
BRANCH   6 138
ATOM    138  S   UNK A   4      -9.172 -30.864  15.117  0.00  0.00    +0.000 S 
BRANCH 138 139
ATOM    139  C   UNK A   4      -8.113 -29.408  15.466  0.00  0.00    +0.000 C 
BRANCH 139 140
ATOM    140  C   UNK A   4      -8.858 -28.041  15.591  0.00  0.00    +0.000 C 
BRANCH 140 141
ATOM    141  C   UNK A   4      -8.275 -26.926  14.702  0.00  0.00    +0.000 C 
ATOM    142  O   UNK A   4      -7.483 -26.063  15.180  0.00  0.00    +0.000 OA
ATOM    143  N   PRO A   5      -8.646 -26.912  13.401  0.00  0.00    +0.000 N 
ATOM    144  CD  PRO A   5      -9.294 -27.975  12.604  0.00  0.00    +0.000 C 
ATOM    145  CG  PRO A   5      -8.666 -27.789  11.255  0.00  0.00    +0.000 C 
ATOM    146  CB  PRO A   5      -8.528 -26.282  11.149  0.00  0.00    +0.000 C 
ATOM    147  CA  PRO A   5      -8.023 -25.916  12.548  0.00  0.00    +0.000 C 
BRANCH 147 148
ATOM    148  C   PRO A   5      -8.362 -24.475  12.990  0.00  0.00    +0.000 C 
ATOM    149  O   PRO A   5      -7.474 -23.601  12.937  0.00  0.00    +0.000 OA
ENDBRANCH 147 148
ENDBRANCH 140 141
BRANCH 140 152
ATOM    150  C   UNK A   3     -11.158 -27.187  15.708  0.00  0.00    +0.000 C 
ATOM    151  O   UNK A   3     -10.793 -26.003  15.964  0.00  0.00    +0.000 OA
ATOM    152  N   UNK A   4     -10.325 -28.211  15.469  0.00  0.00    +0.000 N 
ATOM    153  H   UNK A   4     -10.714 -29.136  15.195  0.00  0.00    +0.000 HD
BRANCH 150 154
ATOM    154  C   UNK A   3     -12.617 -27.526  15.715  0.00  0.00    +0.000 C 
BRANCH 154 156
ATOM    155  C   ILE A   2     -13.343 -29.075  13.979  0.00  0.00    +0.000 C 
ATOM    156  N   UNK A   3     -12.902 -28.877  15.234  0.00  0.00    +0.000 N 
ATOM    157  H   UNK A   3     -12.763 -29.691  15.867  0.00  0.00    +0.000 HD
ATOM    158  O   ILE A   2     -13.359 -28.211  13.122  0.00  0.00    +0.000 OA
BRANCH 155 159
ATOM    159  CA  ILE A   2     -13.733 -30.495  13.648  0.00  0.00    +0.000 C 
BRANCH 159 162
ATOM    160  C   MET A   1     -15.553 -31.411  12.192  0.00  0.00    +0.000 C 
ATOM    161  O   MET A   1     -15.813 -32.383  12.924  0.00  0.00    +0.000 OA
ATOM    162  N   ILE A   2     -14.606 -30.504  12.457  0.00  0.00    +0.000 N 
ATOM    163  H   ILE A   2     -14.473 -29.739  11.765  0.00  0.00    +0.000 HD
BRANCH 160 165
ATOM    164  N   MET A   1     -16.085 -29.872  10.321  0.00  0.00    +0.000 NA
ATOM    165  CA  MET A   1     -16.326 -31.212  10.883  0.00  0.00    +0.000 C 
ATOM    166  CB  MET A   1     -15.764 -32.167   9.800  0.00  0.00    +0.000 C 
ATOM    167  CG  MET A   1     -14.653 -31.374   9.165  0.00  0.00    +0.000 C 
ATOM    168  CD  MET A   1     -15.102 -29.912   9.208  0.00  0.00    +0.000 C 
ENDBRANCH 160 165
ENDBRANCH 159 162
BRANCH 159 169
ATOM    169  CB  ILE A   2     -12.392 -31.186  13.323  0.00  0.00    +0.000 C 
BRANCH 169 170
ATOM    170  CG  ILE A   2     -12.522 -32.666  13.126  0.00  0.00    +0.000 C 
BRANCH 170 171
ATOM    171  SD  ILE A   2     -10.885 -33.334  12.665  0.00  0.00    +0.000 S 
ATOM    172  CE  ILE A   2     -11.369 -35.049  12.499  0.00  0.00    +0.000 C 
ENDBRANCH 170 171
ENDBRANCH 169 170
ENDBRANCH 159 169
ENDBRANCH 155 159
ENDBRANCH 154 156
BRANCH 154 173
ATOM    173  C   UNK A   3     -13.131 -27.382  17.133  0.00  0.00    +0.000 C 
BRANCH 173 174
ATOM    174  C   UNK A   3     -14.555 -27.810  17.236  0.00  0.00    +0.000 C 
ATOM    175  N   UNK A   3     -14.819 -28.908  17.946  0.00  0.00    +0.000 N 
ATOM    176  H   UNK A   3     -14.049 -29.412  18.429  0.00  0.00    +0.000 HD
ATOM    177  H   UNK A   3     -15.795 -29.260  18.016  0.00  0.00    +0.000 HD
ATOM    178  O   UNK A   3     -15.432 -27.158  16.632  0.00  0.00    +0.000 OA
ENDBRANCH 173 174
ENDBRANCH 154 173
ENDBRANCH 150 154
ENDBRANCH 140 152
ENDBRANCH 139 140
ENDBRANCH 138 139
ENDBRANCH   6 138
ENDBRANCH   1   6
BRANCH   3 179
ATOM    179  C   UNK A   4      -6.414 -28.206  20.470  0.00  0.00    +0.000 C 
BRANCH 179 180
ATOM    180  C   UNK A   4      -6.569 -28.663  21.923  0.00  0.00    +0.000 C 
BRANCH 180 181
ATOM    181  N   UNK A   4      -7.903 -28.360  22.400  0.00  0.00    +0.000 N 
ATOM    182  C   ALA A  16      -8.779 -29.328  22.733  0.00  0.00    +0.000 C 
ATOM    183  O   ALA A  16      -8.653 -30.527  22.435  0.00  0.00    +0.000 OA
ATOM    184  H   UNK A   4      -8.193 -27.365  22.488  0.00  0.00    +0.000 HD
BRANCH 182 185
ATOM    185  CA  ALA A  16     -10.017 -28.838  23.449  0.00  0.00    +0.000 C 
ATOM    186  CB  ALA A  16      -9.775 -28.763  24.943  0.00  0.00    +0.000 C 
BRANCH 185 187
ATOM    187  N   ALA A  16     -11.154 -29.702  23.108  0.00  0.00    +0.000 N 
ATOM    188  C   ASP A  15     -12.420 -29.337  23.312  0.00  0.00    +0.000 C 
ATOM    189  O   ASP A  15     -12.744 -28.377  24.008  0.00  0.00    +0.000 OA
ATOM    190  H   ALA A  16     -10.964 -30.636  22.691  0.00  0.00    +0.000 HD
BRANCH 188 191
ATOM    191  CA  ASP A  15     -13.473 -30.226  22.646  0.00  0.00    +0.000 C 
BRANCH 191 192
ATOM    192  N   ASP A  15     -14.788 -30.057  23.233  0.00  0.00    +0.000 N 
ATOM    193  C   ASP A  14     -15.231 -30.827  24.224  0.00  0.00    +0.000 C 
ATOM    194  O   ASP A  14     -14.505 -31.641  24.845  0.00  0.00    +0.000 OA
ATOM    195  H   ASP A  15     -15.408 -29.307  22.866  0.00  0.00    +0.000 HD
BRANCH 193 196
ATOM    196  CA  ASP A  14     -16.716 -30.696  24.513  0.00  0.00    +0.000 C 
BRANCH 196 197
ATOM    197  N   ASP A  14     -17.364 -31.440  23.409  0.00  0.00    +0.000 N 
ATOM    198  H   ASP A  14     -17.572 -32.453  23.515  0.00  0.00    +0.000 HD
ATOM    199  C   PHE A  13     -17.676 -30.815  22.293  0.00  0.00    +0.000 C 
ATOM    200  O   PHE A  13     -17.573 -29.574  22.158  0.00  0.00    +0.000 OA
BRANCH 199 201
ATOM    201  CA  PHE A  13     -18.061 -31.694  21.117  0.00  0.00    +0.000 C 
BRANCH 201 202
ATOM    202  N   PHE A  13     -19.079 -31.055  20.300  0.00  0.00    +0.000 N 
ATOM    203  C   ARG A  12     -20.373 -31.246  20.567  0.00  0.00    +0.000 C 
ATOM    204  O   ARG A  12     -20.774 -32.009  21.451  0.00  0.00    +0.000 OA
ATOM    205  H   PHE A  13     -18.798 -30.447  19.504  0.00  0.00    +0.000 HD
BRANCH 203 206
ATOM    206  CA  ARG A  12     -21.356 -30.439  19.749  0.00  0.00    +0.000 C 
BRANCH 206 207
ATOM    207  N   ARG A  12     -22.206 -31.402  19.044  0.00  0.00    +0.000 N 
ATOM    208  H   ARG A  12     -22.764 -32.080  19.601  0.00  0.00    +0.000 HD
ATOM    209  C   GLU A  11     -22.290 -31.441  17.719  0.00  0.00    +0.000 C 
ATOM    210  O   GLU A  11     -21.593 -30.752  16.964  0.00  0.00    +0.000 OA
BRANCH 209 211
ATOM    211  CA  GLU A  11     -23.314 -32.400  17.145  0.00  0.00    +0.000 C 
BRANCH 211 212
ATOM    212  N   GLU A  11     -23.496 -32.096  15.729  0.00  0.00    +0.000 N 
ATOM    213  C   MET A  10     -24.707 -32.209  15.207  0.00  0.00    +0.000 C 
ATOM    214  O   MET A  10     -25.697 -32.513  15.897  0.00  0.00    +0.000 OA
ATOM    215  H   GLU A  11     -22.691 -31.797  15.143  0.00  0.00    +0.000 HD
BRANCH 213 216
ATOM    216  CA  MET A  10     -24.841 -31.904  13.716  0.00  0.00    +0.000 C 
BRANCH 216 217
ATOM    217  N   MET A  10     -25.294 -33.099  12.991  0.00  0.00    +0.000 N 
ATOM    218  H   MET A  10     -26.266 -33.443  13.129  0.00  0.00    +0.000 HD
ATOM    219  C   SER A   9     -24.478 -33.752  12.156  0.00  0.00    +0.000 C 
ATOM    220  O   SER A   9     -23.337 -33.356  11.874  0.00  0.00    +0.000 OA
BRANCH 219 221
ATOM    221  CA  SER A   9     -25.002 -35.040  11.525  0.00  0.00    +0.000 C 
BRANCH 221 222
ATOM    222  N   SER A   9     -25.862 -35.766  12.446  0.00  0.00    +0.000 N 
ATOM    223  C   GLY A   8     -25.416 -36.815  13.115  0.00  0.00    +0.000 C 
ATOM    224  O   GLY A   8     -24.295 -37.293  12.903  0.00  0.00    +0.000 OA
ATOM    225  H   SER A   9     -26.845 -35.454  12.581  0.00  0.00    +0.000 HD
BRANCH 223 226
ATOM    226  CA  GLY A   8     -26.317 -37.409  14.204  0.00  0.00    +0.000 C 
BRANCH 226 227
ATOM    227  N   GLY A   8     -25.581 -38.509  14.848  0.00  0.00    +0.000 N 
ATOM    228  H   GLY A   8     -24.691 -38.280  15.335  0.00  0.00    +0.000 HD
ATOM    229  C   LEU A   7     -25.986 -39.793  14.847  0.00  0.00    +0.000 C 
ATOM    230  O   LEU A   7     -27.031 -40.205  14.341  0.00  0.00    +0.000 OA
BRANCH 229 231
ATOM    231  CA  LEU A   7     -25.112 -40.752  15.653  0.00  0.00    +0.000 C 
BRANCH 231 232
ATOM    232  N   LEU A   7     -25.794 -41.036  16.929  0.00  0.00    +0.000 N 
ATOM    233  C   ILE A   6     -25.106 -41.012  18.078  0.00  0.00    +0.000 C 
ATOM    234  O   ILE A   6     -23.881 -40.873  18.140  0.00  0.00    +0.000 OA
ATOM    235  H   LEU A   7     -26.811 -41.255  16.937  0.00  0.00    +0.000 HD
BRANCH 233 236
ATOM    236  CA  ILE A   6     -25.886 -41.248  19.340  0.00  0.00    +0.000 C 
BRANCH 236 237
ATOM    237  N   ILE A   6     -27.228 -40.629  19.272  0.00  0.00    +0.000 N 
ATOM    238  C   PRO A   5     -27.375 -39.318  19.446  0.00  0.00    +0.000 C 
ATOM    239  O   PRO A   5     -26.419 -38.543  19.568  0.00  0.00    +0.000 OA
ATOM    240  H   ILE A   6     -28.062 -41.222  19.087  0.00  0.00    +0.000 HD
BRANCH 238 241
ATOM    241  CA  PRO A   5     -28.809 -38.787  19.560  0.00  0.00    +0.000 C 
BRANCH 241 242
ATOM    242  N   PRO A   5     -29.819 -39.756  19.099  0.00  0.00    +0.000 N 
ATOM    243  H   PRO A   5     -30.310 -40.327  19.816  0.00  0.00    +0.000 HD
ATOM    244  C   UNK A   4     -30.140 -39.944  17.824  0.00  0.00    +0.000 C 
ATOM    245  O   UNK A   4     -29.721 -39.243  16.868  0.00  0.00    +0.000 OA
BRANCH 244 246
ATOM    246  C   UNK A   4     -31.107 -41.092  17.581  0.00  0.00    +0.000 C 
BRANCH 246 247
ATOM    247  N   UNK A   4     -30.706 -41.950  16.483  0.00  0.00    +0.000 N 
ATOM    248  C   UNK A   3     -29.475 -42.433  16.382  0.00  0.00    +0.000 C 
ATOM    249  O   UNK A   3     -28.568 -42.131  17.155  0.00  0.00    +0.000 OA
ATOM    250  H   UNK A   4     -31.405 -42.194  15.753  0.00  0.00    +0.000 HD
BRANCH 248 251
ATOM    251  C   UNK A   3     -29.214 -43.384  15.226  0.00  0.00    +0.000 C 
BRANCH 251 252
ATOM    252  N   UNK A   3     -28.593 -42.696  14.112  0.00  0.00    +0.000 N 
ATOM    253  H   UNK A   3     -28.002 -41.860  14.294  0.00  0.00    +0.000 HD
ATOM    254  C   ILE A   2     -28.765 -43.113  12.864  0.00  0.00    +0.000 C 
ATOM    255  O   ILE A   2     -29.463 -44.101  12.573  0.00  0.00    +0.000 OA
BRANCH 254 256
ATOM    256  CA  ILE A   2     -28.071 -42.312  11.782  0.00  0.00    +0.000 C 
BRANCH 256 257
ATOM    257  N   ILE A   2     -27.632 -43.200  10.702  0.00  0.00    +0.000 N 
ATOM    258  C   MET A   1     -26.703 -44.132  10.929  0.00  0.00    +0.000 C 
ATOM    259  O   MET A   1     -26.094 -44.214  11.999  0.00  0.00    +0.000 OA
ATOM    260  H   ILE A   2     -28.046 -43.104   9.753  0.00  0.00    +0.000 HD
BRANCH 258 261
ATOM    261  CA  MET A   1     -26.445 -45.120   9.780  0.00  0.00    +0.000 C 
BRANCH 261 262
ATOM    262  N   MET A   1     -27.129 -44.740   8.556  0.00  0.00    +0.000 NA
ATOM    263  H   MET A   1     -26.842 -43.896   8.020  0.00  0.00    +0.000 HD
ENDBRANCH 261 262
BRANCH 261 264
ATOM    264  CB  MET A   1     -24.958 -45.382   9.528  0.00  0.00    +0.000 C 
BRANCH 264 265
ATOM    265  O   MET A   1     -24.460 -44.431   8.634  0.00  0.00    +0.000 OA
ATOM    266  H   MET A   1     -24.575 -43.526   9.019  0.00  0.00    +0.000 HD
ENDBRANCH 264 265
ENDBRANCH 261 264
ENDBRANCH 258 261
ENDBRANCH 256 257
BRANCH 256 267
ATOM    267  CB  ILE A   2     -28.970 -41.176  11.266  0.00  0.00    +0.000 C 
BRANCH 267 268
ATOM    268  CG  ILE A   2     -28.308 -40.226  10.254  0.00  0.00    +0.000 C 
ATOM    269  CD2 ILE A   2     -27.145 -39.465  10.908  0.00  0.00    +0.000 C 
ATOM    270  CD1 ILE A   2     -29.345 -39.242   9.746  0.00  0.00    +0.000 C 
ENDBRANCH 267 268
ENDBRANCH 256 267
ENDBRANCH 254 256
ENDBRANCH 251 252
BRANCH 251 271
ATOM    271  C   UNK A   3     -28.364 -44.565  15.693  0.00  0.00    +0.000 C 
BRANCH 271 272
ATOM    272  C   UNK A   3     -28.966 -45.279  16.868  0.00  0.00    +0.000 A 
ATOM    273  C   UNK A   3     -28.581 -45.327  18.201  0.00  0.00    +0.000 A 
ATOM    274  N   UNK A   3     -29.486 -46.063  18.866  0.00  0.00    +0.000 NA
ATOM    275  C   UNK A   3     -30.426 -46.500  17.986  0.00  0.00    +0.000 A 
ATOM    276  N   UNK A   3     -30.107 -46.008  16.764  0.00  0.00    +0.000 NA
ENDBRANCH 271 272
ENDBRANCH 251 271
ENDBRANCH 248 251
ENDBRANCH 246 247
ENDBRANCH 244 246
ENDBRANCH 241 242
BRANCH 241 277
ATOM    277  CB  PRO A   5     -29.076 -38.441  21.023  0.00  0.00    +0.000 C 
BRANCH 277 278
ATOM    278  CG  PRO A   5     -30.375 -37.733  21.358  0.00  0.00    +0.000 C 
ATOM    279  CD2 PRO A   5     -30.424 -37.504  22.856  0.00  0.00    +0.000 C 
ATOM    280  CD1 PRO A   5     -30.471 -36.440  20.554  0.00  0.00    +0.000 C 
ENDBRANCH 277 278
ENDBRANCH 241 277
ENDBRANCH 238 241
ENDBRANCH 236 237
BRANCH 236 281
ATOM    281  CB  ILE A   6     -25.957 -42.773  19.527  0.00  0.00    +0.000 C 
BRANCH 281 282
ATOM    282  CG  ILE A   6     -26.861 -43.232  20.647  0.00  0.00    +0.000 C 
BRANCH 282 283
ATOM    283  SD  ILE A   6     -26.204 -42.652  22.203  0.00  0.00    +0.000 S 
ATOM    284  CE  ILE A   6     -27.065 -43.826  23.298  0.00  0.00    +0.000 C 
ENDBRANCH 282 283
ENDBRANCH 281 282
ENDBRANCH 236 281
ENDBRANCH 233 236
ENDBRANCH 231 232
BRANCH 231 285
ATOM    285  CB  LEU A   7     -24.752 -42.040  14.881  0.00  0.00    +0.000 C 
BRANCH 285 286
ATOM    286  CG  LEU A   7     -23.965 -41.765  13.596  0.00  0.00    +0.000 C 
BRANCH 286 287
ATOM    287  CD  LEU A   7     -23.299 -42.999  13.019  0.00  0.00    +0.000 C 
BRANCH 287 288
ATOM    288  NE  LEU A   7     -22.204 -43.395  13.906  0.00  0.00    +0.330 N 
ATOM    289  CZ  LEU A   7     -22.051 -44.591  14.468  0.00  0.00    +0.000 C 
ATOM    290  NH2 LEU A   7     -21.001 -44.764  15.252  0.00  0.00    +0.330 N 
ATOM    291 HH21 LEU A   7     -20.842 -45.683  15.712  0.00  0.00    +0.000 HD
ATOM    292 HH22 LEU A   7     -20.334 -43.981  15.408  0.00  0.00    +0.000 HD
ATOM    293  NH1 LEU A   7     -22.880 -45.610  14.231  0.00  0.00    +0.330 N 
ATOM    294 HH11 LEU A   7     -22.721 -46.528  14.693  0.00  0.00    +0.000 HD
ATOM    295 HH12 LEU A   7     -23.685 -45.486  13.584  0.00  0.00    +0.000 HD
ATOM    296  HE  LEU A   7     -21.481 -42.677  14.116  0.00  0.00    +0.000 HD
ENDBRANCH 287 288
ENDBRANCH 286 287
ENDBRANCH 285 286
ENDBRANCH 231 285
ENDBRANCH 229 231
ENDBRANCH 226 227
BRANCH 226 297
ATOM    297  CB  GLY A   8     -26.708 -36.320  15.232  0.00  0.00    +0.000 C 
ATOM    298  CG2 GLY A   8     -27.732 -36.843  16.245  0.00  0.00    +0.000 C 
ATOM    299  CG1 GLY A   8     -25.467 -35.813  15.972  0.00  0.00    +0.000 C 
ENDBRANCH 226 297
ENDBRANCH 223 226
ENDBRANCH 221 222
BRANCH 221 300
ATOM    300  CB  SER A   9     -25.771 -34.691  10.249  0.00  0.00    +0.000 C 
BRANCH 300 301
ATOM    301  CG  SER A   9     -25.910 -35.886   9.330  0.00  0.00    +0.000 C 
BRANCH 301 302
ATOM    302  CD  SER A   9     -26.683 -35.532   8.090  0.00  0.00    +0.000 C 
BRANCH 302 303
ATOM    303  NE  SER A   9     -26.739 -36.705   7.185  0.00  0.00    +0.330 N 
ATOM    304  HE  SER A   9     -26.214 -37.559   7.464  0.00  0.00    +0.000 HD
ATOM    305  CZ  SER A   9     -27.419 -36.738   6.035  0.00  0.00    +0.000 C 
ATOM    306  NH2 SER A   9     -28.129 -35.674   5.647  0.00  0.00    +0.330 N 
ATOM    307 HH21 SER A   9     -28.152 -34.820   6.240  0.00  0.00    +0.000 HD
ATOM    308 HH22 SER A   9     -28.658 -35.700   4.752  0.00  0.00    +0.000 HD
ATOM    309  NH1 SER A   9     -27.387 -37.831   5.250  0.00  0.00    +0.330 N 
ATOM    310 HH11 SER A   9     -26.829 -38.661   5.536  0.00  0.00    +0.000 HD
ATOM    311 HH12 SER A   9     -27.920 -37.846   4.357  0.00  0.00    +0.000 HD
ENDBRANCH 302 303
ENDBRANCH 301 302
ENDBRANCH 300 301
ENDBRANCH 221 300
ENDBRANCH 219 221
ENDBRANCH 216 217
ENDBRANCH 213 216
ENDBRANCH 211 212
BRANCH 211 312
ATOM    312  CB  GLU A  11     -22.820 -33.841  17.322  0.00  0.00    +0.000 C 
BRANCH 312 313
ATOM    313  CG  GLU A  11     -21.566 -34.128  16.527  0.00  0.00    +0.000 A 
ATOM    314  CD2 GLU A  11     -20.313 -34.022  17.122  0.00  0.00    +0.000 A 
ATOM    315  CE2 GLU A  11     -19.155 -34.270  16.379  0.00  0.00    +0.000 A 
ATOM    316  CZ  GLU A  11     -19.237 -34.614  15.016  0.00  0.00    +0.000 A 
ATOM    317  CE1 GLU A  11     -20.500 -34.668  14.392  0.00  0.00    +0.000 A 
ATOM    318  CD1 GLU A  11     -21.650 -34.403  15.153  0.00  0.00    +0.000 A 
ENDBRANCH 312 313
ENDBRANCH 211 312
ENDBRANCH 209 211
ENDBRANCH 206 207
BRANCH 206 319
ATOM    319  CB  ARG A  12     -22.187 -29.512  20.642  0.00  0.00    +0.000 C 
ATOM    320  CG2 ARG A  12     -21.325 -28.530  21.429  0.00  0.00    +0.000 C 
BRANCH 319 321
ATOM    321  OG1 ARG A  12     -23.032 -28.741  19.787  0.00  0.00    +0.000 OA
ATOM    322  HG1 ARG A  12     -23.621 -29.348  19.273  0.00  0.00    +0.000 HD
ENDBRANCH 319 321
ENDBRANCH 206 319
ENDBRANCH 203 206
ENDBRANCH 201 202
BRANCH 201 323
ATOM    323  CB  PHE A  13     -16.786 -31.921  20.294  0.00  0.00    +0.000 C 
BRANCH 323 324
ATOM    324  CG  PHE A  13     -17.008 -32.731  19.020  0.00  0.00    +0.000 C 
BRANCH 324 325
ATOM    325  CD  PHE A  13     -15.755 -32.847  18.182  0.00  0.00    +0.000 C 
ATOM    326  OE1 PHE A  13     -15.056 -31.869  17.974  0.00  0.00    +0.000 OA
ATOM    327  NE2 PHE A  13     -15.496 -34.051  17.647  0.00  0.00    +0.000 N 
ATOM    328 HE21 PHE A  13     -16.121 -34.857  17.853  0.00  0.00    +0.000 HD
ATOM    329 HE22 PHE A  13     -14.671 -34.178  17.027  0.00  0.00    +0.000 HD
ENDBRANCH 324 325
ENDBRANCH 323 324
ENDBRANCH 201 323
ENDBRANCH 199 201
ENDBRANCH 196 197
BRANCH 196 330
ATOM    330  CB  ASP A  14     -17.131 -31.256  25.881  0.00  0.00    +0.000 C 
BRANCH 330 331
ATOM    331  CG  ASP A  14     -16.677 -32.717  26.086  0.00  0.00    +0.000 C 
ATOM    332  OD2 ASP A  14     -16.064 -33.026  27.117  0.00  0.00    +0.000 OA
ATOM    333  OD1 ASP A  14     -16.905 -33.535  25.173  0.00  0.00    +0.000 OA
ENDBRANCH 330 331
ENDBRANCH 196 330
ENDBRANCH 193 196
ENDBRANCH 191 192
BRANCH 191 334
ATOM    334  CB  ASP A  15     -13.603 -29.854  21.159  0.00  0.00    +0.000 C 
BRANCH 334 335
ATOM    335  CG  ASP A  15     -12.489 -30.395  20.287  0.00  0.00    +0.000 C 
ATOM    336  OD2 ASP A  15     -11.679 -31.272  20.697  0.00  0.00    +0.000 OA
ATOM    337  OD1 ASP A  15     -12.462 -29.937  19.114  0.00  0.00    +0.000 OA
ENDBRANCH 334 335
ENDBRANCH 191 334
ENDBRANCH 188 191
ENDBRANCH 185 187
ENDBRANCH 182 185
ENDBRANCH 180 181
BRANCH 180 338
ATOM    338  C   UNK A   4      -5.584 -28.053  22.873  0.00  0.00    +0.000 C 
ATOM    339  N   ILE A  18      -4.604 -28.853  23.266  0.00  0.00    +0.000 N 
ATOM    340  H   ILE A  18      -4.611 -29.848  22.964  0.00  0.00    +0.000 HD
ATOM    341  O   UNK A   4      -5.731 -26.891  23.246  0.00  0.00    +0.000 OA
BRANCH 339 342
ATOM    342  CA  ILE A  18      -3.509 -28.372  24.116  0.00  0.00    +0.000 C 
BRANCH 342 343
ATOM    343  CB  ILE A  18      -3.243 -29.322  25.294  0.00  0.00    +0.000 C 
ATOM    344  CG2 ILE A  18      -2.133 -28.746  26.175  0.00  0.00    +0.000 C 
BRANCH 343 345
ATOM    345  CG1 ILE A  18      -4.535 -29.527  26.100  0.00  0.00    +0.000 C 
ATOM    346  CD1 ILE A  18      -4.417 -30.657  27.117  0.00  0.00    +0.000 C 
ENDBRANCH 343 345
ENDBRANCH 342 343
BRANCH 342 347
ATOM    347  C   ILE A  18      -2.264 -28.271  23.272  0.00  0.00    +0.000 C 
ATOM    348  O   ILE A  18      -1.842 -29.243  22.619  0.00  0.00    +0.000 OA
ENDBRANCH 342 347
ENDBRANCH 339 342
ENDBRANCH 180 338
ENDBRANCH 179 180
ENDBRANCH   3 179
TORSDOF 144
REMARK  Name = ../refined-set-2016/4hwp/4hwp_pocket.pdb
REMARK  256 active torsions:
REMARK  status: ('A' for Active; 'I' for Inactive)
REMARK    1  A    between atoms: _1  and  _3
REMARK    2  A    between atoms: _3  and  _4
REMARK    3  A    between atoms: _6  and  _8
REMARK    4  A    between atoms: _8  and  _9
REMARK    5  A    between atoms: _8  and  _11
REMARK    6  A    between atoms: _11  and  _12
REMARK    7  A    between atoms: _17  and  _19
REMARK    8  A    between atoms: _19  and  _20
REMARK    9  A    between atoms: _19  and  _22
REMARK   10  A    between atoms: _22  and  _23
REMARK   11  A    between atoms: _28  and  _29
REMARK   12  A    between atoms: _31  and  _33
REMARK   13  A    between atoms: _33  and  _34
REMARK   14  A    between atoms: _38  and  _39
REMARK   15  A    between atoms: _44  and  _46
REMARK   16  A    between atoms: _46  and  _47
REMARK   17  A    between atoms: _46  and  _49
REMARK   18  A    between atoms: _49  and  _50
REMARK   19  A    between atoms: _50  and  _51
REMARK   20  A    between atoms: _53  and  _55
REMARK   21  A    between atoms: _55  and  _56
REMARK   22  A    between atoms: _55  and  _58
REMARK   23  A    between atoms: _58  and  _59
REMARK   24  A    between atoms: _64  and  _66
REMARK   25  A    between atoms: _66  and  _67
REMARK   26  A    between atoms: _66  and  _69
REMARK   27  A    between atoms: _69  and  _70
REMARK   28  A    between atoms: _70  and  ZN_632
REMARK   29  A    between atoms: _72  and  _73
REMARK   30  A    between atoms: _78  and  _80
REMARK   31  A    between atoms: _80  and  _81
REMARK   32  A    between atoms: _80  and  _83
REMARK   33  A    between atoms: _83  and  _84
REMARK   34  A    between atoms: _89  and  _91
REMARK   35  A    between atoms: _91  and  _92
REMARK   36  A    between atoms: _91  and  _94
REMARK   37  A    between atoms: _96  and  _98
REMARK   38  A    between atoms: _98  and  _99
REMARK   39  A    between atoms: _98  and  _101
REMARK   40  A    between atoms: _101  and  _102
REMARK   41  A    between atoms: _107  and  _109
REMARK   42  A    between atoms: _109  and  _110
REMARK   43  A    between atoms: _109  and  _112
REMARK   44  A    between atoms: _112  and  _113
REMARK   45  A    between atoms: _113  and  _114
REMARK   46  A    between atoms: _114  and  _115
REMARK   47  A    between atoms: _124  and  _126
REMARK   48  A    between atoms: _126  and  _127
REMARK   49  A    between atoms: _126  and  _129
REMARK   50  A    between atoms: _129  and  _130
REMARK   51  A    between atoms: _135  and  _137
REMARK   52  A    between atoms: _137  and  _138
REMARK   53  A    between atoms: _137  and  _140
REMARK   54  A    between atoms: _140  and  _141
REMARK   55  A    between atoms: _141  and  _142
REMARK   56  A    between atoms: _146  and  _147
REMARK   57  A    between atoms: _152  and  _154
REMARK   58  A    between atoms: _154  and  _155
REMARK   59  A    between atoms: _154  and  _157
REMARK   60  A    between atoms: _157  and  _158
REMARK   61  A    between atoms: _160  and  _162
REMARK   62  A    between atoms: _162  and  _163
REMARK   63  A    between atoms: _162  and  _165
REMARK   64  A    between atoms: _165  and  _166
REMARK   65  A    between atoms: _169  and  _171
REMARK   66  A    between atoms: _171  and  _172
REMARK   67  A    between atoms: _171  and  _174
REMARK   68  A    between atoms: _174  and  _175
REMARK   69  A    between atoms: _180  and  _182
REMARK   70  A    between atoms: _182  and  _183
REMARK   71  A    between atoms: _185  and  _187
REMARK   72  A    between atoms: _187  and  _188
REMARK   73  A    between atoms: _187  and  _190
REMARK   74  A    between atoms: _190  and  _191
REMARK   75  A    between atoms: _194  and  _196
REMARK   76  A    between atoms: _196  and  _197
REMARK   77  A    between atoms: _196  and  _199
REMARK   78  A    between atoms: _199  and  _200
REMARK   79  A    between atoms: _200  and  _201
REMARK   80  A    between atoms: _203  and  _205
REMARK   81  A    between atoms: _205  and  _206
REMARK   82  A    between atoms: _205  and  _208
REMARK   83  A    between atoms: _208  and  _209
REMARK   84  A    between atoms: _209  and  _210
REMARK   85  A    between atoms: _210  and  _211
REMARK   86  A    between atoms: _220  and  _222
REMARK   87  A    between atoms: _222  and  _223
REMARK   88  A    between atoms: _222  and  _225
REMARK   89  A    between atoms: _228  and  _230
REMARK   90  A    between atoms: _230  and  _231
REMARK   91  A    between atoms: _230  and  _233
REMARK   92  A    between atoms: _233  and  _234
REMARK   93  A    between atoms: _234  and  _235
REMARK   94  A    between atoms: _235  and  _236
REMARK   95  A    between atoms: _245  and  _247
REMARK   96  A    between atoms: _247  and  _248
REMARK   97  A    between atoms: _250  and  _252
REMARK   98  A    between atoms: _252  and  _253
REMARK   99  A    between atoms: _252  and  _255
REMARK  100  A    between atoms: _255  and  _256
REMARK  101  A    between atoms: _262  and  _264
REMARK  102  A    between atoms: _264  and  _265
REMARK  103  A    between atoms: _264  and  _267
REMARK  104  A    between atoms: _267  and  _268
REMARK  105  A    between atoms: _271  and  _273
REMARK  106  A    between atoms: _273  and  _274
REMARK  107  A    between atoms: _273  and  _276
REMARK  108  A    between atoms: _276  and  _277
REMARK  109  A    between atoms: _277  and  _278
REMARK  110  A    between atoms: _283  and  _285
REMARK  111  A    between atoms: _285  and  _286
REMARK  112  A    between atoms: _285  and  _288
REMARK  113  A    between atoms: _288  and  _289
REMARK  114  A    between atoms: _292  and  _294
REMARK  115  A    between atoms: _294  and  _295
REMARK  116  A    between atoms: _294  and  _297
REMARK  117  A    between atoms: _297  and  _298
REMARK  118  A    between atoms: _301  and  _303
REMARK  119  A    between atoms: _303  and  _304
REMARK  120  A    between atoms: _307  and  _309
REMARK  121  A    between atoms: _309  and  _310
REMARK  122  A    between atoms: _309  and  _312
REMARK  123  A    between atoms: _312  and  _313
REMARK  124  A    between atoms: _317  and  ZN_632
REMARK  125  A    between atoms: _318  and  _320
REMARK  126  A    between atoms: _320  and  _321
REMARK  127  A    between atoms: _320  and  _323
REMARK  128  A    between atoms: _323  and  _324
REMARK  129  A    between atoms: _327  and  _329
REMARK  130  A    between atoms: _329  and  _330
REMARK  131  A    between atoms: _329  and  _332
REMARK  132  A    between atoms: _332  and  _333
REMARK  133  A    between atoms: _335  and  _337
REMARK  134  A    between atoms: _337  and  _338
REMARK  135  A    between atoms: _337  and  _340
REMARK  136  A    between atoms: _340  and  _341
REMARK  137  A    between atoms: _341  and  _342
REMARK  138  A    between atoms: _345  and  _347
REMARK  139  A    between atoms: _347  and  _348
REMARK  140  A    between atoms: _350  and  _352
REMARK  141  A    between atoms: _352  and  _353
REMARK  142  A    between atoms: _356  and  _358
REMARK  143  A    between atoms: _358  and  _359
REMARK  144  A    between atoms: _358  and  _361
REMARK  145  A    between atoms: _361  and  _362
REMARK  146  A    between atoms: _368  and  _370
REMARK  147  A    between atoms: _370  and  _371
REMARK  148  A    between atoms: _370  and  _373
REMARK  149  A    between atoms: _373  and  _374
REMARK  150  A    between atoms: _379  and  _380
REMARK  151  A    between atoms: _382  and  _384
REMARK  152  A    between atoms: _384  and  _385
REMARK  153  A    between atoms: _384  and  _387
REMARK  154  A    between atoms: _387  and  _388
REMARK  155  A    between atoms: _388  and  _389
REMARK  156  A    between atoms: _389  and  _390
REMARK  157  A    between atoms: _390  and  _391
REMARK  158  A    between atoms: _395  and  _397
REMARK  159  A    between atoms: _397  and  _398
REMARK  160  A    between atoms: _397  and  _400
REMARK  161  A    between atoms: _400  and  _401
REMARK  162  A    between atoms: _404  and  _406
REMARK  163  A    between atoms: _406  and  _407
REMARK  164  A    between atoms: _406  and  _409
REMARK  165  A    between atoms: _409  and  _410
REMARK  166  A    between atoms: _410  and  _411
REMARK  167  A    between atoms: _414  and  _416
REMARK  168  A    between atoms: _416  and  _417
REMARK  169  A    between atoms: _416  and  _419
REMARK  170  A    between atoms: _419  and  _420
REMARK  171  A    between atoms: _430  and  _432
REMARK  172  A    between atoms: _432  and  _433
REMARK  173  A    between atoms: _432  and  _435
REMARK  174  A    between atoms: _435  and  _436
REMARK  175  A    between atoms: _436  and  _437
REMARK  176  A    between atoms: _442  and  _444
REMARK  177  A    between atoms: _444  and  _445
REMARK  178  A    between atoms: _444  and  _447
REMARK  179  A    between atoms: _449  and  _451
REMARK  180  A    between atoms: _451  and  _452
REMARK  181  A    between atoms: _454  and  _456
REMARK  182  A    between atoms: _456  and  _457
REMARK  183  A    between atoms: _456  and  _459
REMARK  184  A    between atoms: _459  and  _460
REMARK  185  A    between atoms: _463  and  _465
REMARK  186  A    between atoms: _465  and  _466
REMARK  187  A    between atoms: _465  and  _468
REMARK  188  A    between atoms: _471  and  _473
REMARK  189  A    between atoms: _473  and  _474
REMARK  190  A    between atoms: _473  and  _476
REMARK  191  A    between atoms: _476  and  _477
REMARK  192  A    between atoms: _477  and  _478
REMARK  193  A    between atoms: _483  and  _485
REMARK  194  A    between atoms: _485  and  _486
REMARK  195  A    between atoms: _485  and  _488
REMARK  196  A    between atoms: _488  and  _489
REMARK  197  A    between atoms: _492  and  _494
REMARK  198  A    between atoms: _494  and  _495
REMARK  199  A    between atoms: _494  and  _497
REMARK  200  A    between atoms: _497  and  _498
REMARK  201  A    between atoms: _501  and  _503
REMARK  202  A    between atoms: _503  and  _504
REMARK  203  A    between atoms: _503  and  _506
REMARK  204  A    between atoms: _506  and  _507
REMARK  205  A    between atoms: _507  and  _508
REMARK  206  A    between atoms: _510  and  _512
REMARK  207  A    between atoms: _512  and  _513
REMARK  208  A    between atoms: _512  and  _515
REMARK  209  A    between atoms: _515  and  _516
REMARK  210  A    between atoms: _519  and  _521
REMARK  211  A    between atoms: _521  and  _522
REMARK  212  A    between atoms: _521  and  _524
REMARK  213  A    between atoms: _524  and  _525
REMARK  214  A    between atoms: _526  and  ZN_632
REMARK  215  A    between atoms: _530  and  _532
REMARK  216  A    between atoms: _532  and  _533
REMARK  217  A    between atoms: _532  and  _535
REMARK  218  A    between atoms: _535  and  _536
REMARK  219  A    between atoms: _536  and  _537
REMARK  220  A    between atoms: _537  and  _538
REMARK  221  A    between atoms: _547  and  _549
REMARK  222  A    between atoms: _549  and  _550
REMARK  223  A    between atoms: _553  and  _555
REMARK  224  A    between atoms: _555  and  _556
REMARK  225  A    between atoms: _555  and  _558
REMARK  226  A    between atoms: _558  and  _559
REMARK  227  A    between atoms: _562  and  _564
REMARK  228  A    between atoms: _564  and  _565
REMARK  229  A    between atoms: _564  and  _567
REMARK  230  A    between atoms: _567  and  _568
REMARK  231  A    between atoms: _571  and  _573
REMARK  232  A    between atoms: _573  and  _574
REMARK  233  A    between atoms: _576  and  _578
REMARK  234  A    between atoms: _578  and  _579
REMARK  235  A    between atoms: _578  and  _581
REMARK  236  A    between atoms: _581  and  _582
REMARK  237  A    between atoms: _584  and  _586
REMARK  238  A    between atoms: _586  and  _587
REMARK  239  A    between atoms: _586  and  _589
REMARK  240  A    between atoms: _589  and  _590
REMARK  241  A    between atoms: _590  and  _591
REMARK  242  A    between atoms: _593  and  _595
REMARK  243  A    between atoms: _595  and  _596
REMARK  244  A    between atoms: _595  and  _598
REMARK  245  A    between atoms: _598  and  _599
REMARK  246  A    between atoms: _599  and  _600
REMARK  247  A    between atoms: _603  and  _605
REMARK  248  A    between atoms: _605  and  _606
REMARK  249  A    between atoms: _605  and  _608
REMARK  250  A    between atoms: _608  and  _609
REMARK  251  A    between atoms: _609  and  _610
REMARK  252  A    between atoms: _610  and  _611
REMARK  253  A    between atoms: _620  and  _622
REMARK  254  A    between atoms: _622  and  _623
REMARK  255  A    between atoms: _622  and  _625
REMARK  256  A    between atoms: _625  and  _626
REMARK                            x       y       z     vdW  Elec       q    Type
REMARK                         _______ _______ _______ _____ _____    ______ ____
ROOT
ATOM      1  CB  HIS A   1      -8.023 -24.587  18.205  0.00  0.00    +0.072 C 
ENDROOT
BRANCH   1   2
ATOM      2  CG  HIS A   1      -9.352 -24.801  18.879  0.00  0.00    +0.082 A 
ATOM      3  ND1 HIS A   1      -9.596 -25.796  19.791  0.00  0.00    -0.227 NA
ATOM      4  CE1 HIS A   1     -10.887 -25.693  20.201  0.00  0.00    +0.199 A 
ATOM      5  NE2 HIS A   1     -11.462 -24.658  19.540  0.00  0.00    -0.221 NA
ATOM      6  CD2 HIS A   1     -10.552 -24.078  18.747  0.00  0.00    +0.115 A 
ENDBRANCH   1   2
BRANCH   1   7
ATOM      7  CA  HIS A   1      -8.026 -23.346  17.312  0.00  0.00    +0.139 C 
BRANCH   7   8
ATOM      8  N   HIS A   1      -8.893 -23.557  16.129  0.00  0.00    -0.239 NA
ATOM      9  H   HIS A   1      -9.338 -24.486  15.986  0.00  0.00    +0.142 HD
ENDBRANCH   7   8
BRANCH   7  10
ATOM     10  C   HIS A   1      -6.652 -22.963  16.913  0.00  0.00    +0.224 C 
ATOM     11  O   HIS A   1      -6.053 -22.076  17.525  0.00  0.00    -0.287 OA
ENDBRANCH   7  10
ENDBRANCH   1   7
TORSDOF 4
REMARK  Name = ../refined-set-2016/4hwp/4hwp_pocket.pdb
REMARK  256 active torsions:
REMARK  status: ('A' for Active; 'I' for Inactive)
REMARK    1  A    between atoms: _1  and  _3
REMARK    2  A    between atoms: _3  and  _4
REMARK    3  A    between atoms: _6  and  _8
REMARK    4  A    between atoms: _8  and  _9
REMARK    5  A    between atoms: _8  and  _11
REMARK    6  A    between atoms: _11  and  _12
REMARK    7  A    between atoms: _17  and  _19
REMARK    8  A    between atoms: _19  and  _20
REMARK    9  A    between atoms: _19  and  _22
REMARK   10  A    between atoms: _22  and  _23
REMARK   11  A    between atoms: _28  and  _29
REMARK   12  A    between atoms: _31  and  _33
REMARK   13  A    between atoms: _33  and  _34
REMARK   14  A    between atoms: _38  and  _39
REMARK   15  A    between atoms: _44  and  _46
REMARK   16  A    between atoms: _46  and  _47
REMARK   17  A    between atoms: _46  and  _49
REMARK   18  A    between atoms: _49  and  _50
REMARK   19  A    between atoms: _50  and  _51
REMARK   20  A    between atoms: _53  and  _55
REMARK   21  A    between atoms: _55  and  _56
REMARK   22  A    between atoms: _55  and  _58
REMARK   23  A    between atoms: _58  and  _59
REMARK   24  A    between atoms: _64  and  _66
REMARK   25  A    between atoms: _66  and  _67
REMARK   26  A    between atoms: _66  and  _69
REMARK   27  A    between atoms: _69  and  _70
REMARK   28  A    between atoms: _70  and  ZN_632
REMARK   29  A    between atoms: _72  and  _73
REMARK   30  A    between atoms: _78  and  _80
REMARK   31  A    between atoms: _80  and  _81
REMARK   32  A    between atoms: _80  and  _83
REMARK   33  A    between atoms: _83  and  _84
REMARK   34  A    between atoms: _89  and  _91
REMARK   35  A    between atoms: _91  and  _92
REMARK   36  A    between atoms: _91  and  _94
REMARK   37  A    between atoms: _96  and  _98
REMARK   38  A    between atoms: _98  and  _99
REMARK   39  A    between atoms: _98  and  _101
REMARK   40  A    between atoms: _101  and  _102
REMARK   41  A    between atoms: _107  and  _109
REMARK   42  A    between atoms: _109  and  _110
REMARK   43  A    between atoms: _109  and  _112
REMARK   44  A    between atoms: _112  and  _113
REMARK   45  A    between atoms: _113  and  _114
REMARK   46  A    between atoms: _114  and  _115
REMARK   47  A    between atoms: _124  and  _126
REMARK   48  A    between atoms: _126  and  _127
REMARK   49  A    between atoms: _126  and  _129
REMARK   50  A    between atoms: _129  and  _130
REMARK   51  A    between atoms: _135  and  _137
REMARK   52  A    between atoms: _137  and  _138
REMARK   53  A    between atoms: _137  and  _140
REMARK   54  A    between atoms: _140  and  _141
REMARK   55  A    between atoms: _141  and  _142
REMARK   56  A    between atoms: _146  and  _147
REMARK   57  A    between atoms: _152  and  _154
REMARK   58  A    between atoms: _154  and  _155
REMARK   59  A    between atoms: _154  and  _157
REMARK   60  A    between atoms: _157  and  _158
REMARK   61  A    between atoms: _160  and  _162
REMARK   62  A    between atoms: _162  and  _163
REMARK   63  A    between atoms: _162  and  _165
REMARK   64  A    between atoms: _165  and  _166
REMARK   65  A    between atoms: _169  and  _171
REMARK   66  A    between atoms: _171  and  _172
REMARK   67  A    between atoms: _171  and  _174
REMARK   68  A    between atoms: _174  and  _175
REMARK   69  A    between atoms: _180  and  _182
REMARK   70  A    between atoms: _182  and  _183
REMARK   71  A    between atoms: _185  and  _187
REMARK   72  A    between atoms: _187  and  _188
REMARK   73  A    between atoms: _187  and  _190
REMARK   74  A    between atoms: _190  and  _191
REMARK   75  A    between atoms: _194  and  _196
REMARK   76  A    between atoms: _196  and  _197
REMARK   77  A    between atoms: _196  and  _199
REMARK   78  A    between atoms: _199  and  _200
REMARK   79  A    between atoms: _200  and  _201
REMARK   80  A    between atoms: _203  and  _205
REMARK   81  A    between atoms: _205  and  _206
REMARK   82  A    between atoms: _205  and  _208
REMARK   83  A    between atoms: _208  and  _209
REMARK   84  A    between atoms: _209  and  _210
REMARK   85  A    between atoms: _210  and  _211
REMARK   86  A    between atoms: _220  and  _222
REMARK   87  A    between atoms: _222  and  _223
REMARK   88  A    between atoms: _222  and  _225
REMARK   89  A    between atoms: _228  and  _230
REMARK   90  A    between atoms: _230  and  _231
REMARK   91  A    between atoms: _230  and  _233
REMARK   92  A    between atoms: _233  and  _234
REMARK   93  A    between atoms: _234  and  _235
REMARK   94  A    between atoms: _235  and  _236
REMARK   95  A    between atoms: _245  and  _247
REMARK   96  A    between atoms: _247  and  _248
REMARK   97  A    between atoms: _250  and  _252
REMARK   98  A    between atoms: _252  and  _253
REMARK   99  A    between atoms: _252  and  _255
REMARK  100  A    between atoms: _255  and  _256
REMARK  101  A    between atoms: _262  and  _264
REMARK  102  A    between atoms: _264  and  _265
REMARK  103  A    between atoms: _264  and  _267
REMARK  104  A    between atoms: _267  and  _268
REMARK  105  A    between atoms: _271  and  _273
REMARK  106  A    between atoms: _273  and  _274
REMARK  107  A    between atoms: _273  and  _276
REMARK  108  A    between atoms: _276  and  _277
REMARK  109  A    between atoms: _277  and  _278
REMARK  110  A    between atoms: _283  and  _285
REMARK  111  A    between atoms: _285  and  _286
REMARK  112  A    between atoms: _285  and  _288
REMARK  113  A    between atoms: _288  and  _289
REMARK  114  A    between atoms: _292  and  _294
REMARK  115  A    between atoms: _294  and  _295
REMARK  116  A    between atoms: _294  and  _297
REMARK  117  A    between atoms: _297  and  _298
REMARK  118  A    between atoms: _301  and  _303
REMARK  119  A    between atoms: _303  and  _304
REMARK  120  A    between atoms: _307  and  _309
REMARK  121  A    between atoms: _309  and  _310
REMARK  122  A    between atoms: _309  and  _312
REMARK  123  A    between atoms: _312  and  _313
REMARK  124  A    between atoms: _317  and  ZN_632
REMARK  125  A    between atoms: _318  and  _320
REMARK  126  A    between atoms: _320  and  _321
REMARK  127  A    between atoms: _320  and  _323
REMARK  128  A    between atoms: _323  and  _324
REMARK  129  A    between atoms: _327  and  _329
REMARK  130  A    between atoms: _329  and  _330
REMARK  131  A    between atoms: _329  and  _332
REMARK  132  A    between atoms: _332  and  _333
REMARK  133  A    between atoms: _335  and  _337
REMARK  134  A    between atoms: _337  and  _338
REMARK  135  A    between atoms: _337  and  _340
REMARK  136  A    between atoms: _340  and  _341
REMARK  137  A    between atoms: _341  and  _342
REMARK  138  A    between atoms: _345  and  _347
REMARK  139  A    between atoms: _347  and  _348
REMARK  140  A    between atoms: _350  and  _352
REMARK  141  A    between atoms: _352  and  _353
REMARK  142  A    between atoms: _356  and  _358
REMARK  143  A    between atoms: _358  and  _359
REMARK  144  A    between atoms: _358  and  _361
REMARK  145  A    between atoms: _361  and  _362
REMARK  146  A    between atoms: _368  and  _370
REMARK  147  A    between atoms: _370  and  _371
REMARK  148  A    between atoms: _370  and  _373
REMARK  149  A    between atoms: _373  and  _374
REMARK  150  A    between atoms: _379  and  _380
REMARK  151  A    between atoms: _382  and  _384
REMARK  152  A    between atoms: _384  and  _385
REMARK  153  A    between atoms: _384  and  _387
REMARK  154  A    between atoms: _387  and  _388
REMARK  155  A    between atoms: _388  and  _389
REMARK  156  A    between atoms: _389  and  _390
REMARK  157  A    between atoms: _390  and  _391
REMARK  158  A    between atoms: _395  and  _397
REMARK  159  A    between atoms: _397  and  _398
REMARK  160  A    between atoms: _397  and  _400
REMARK  161  A    between atoms: _400  and  _401
REMARK  162  A    between atoms: _404  and  _406
REMARK  163  A    between atoms: _406  and  _407
REMARK  164  A    between atoms: _406  and  _409
REMARK  165  A    between atoms: _409  and  _410
REMARK  166  A    between atoms: _410  and  _411
REMARK  167  A    between atoms: _414  and  _416
REMARK  168  A    between atoms: _416  and  _417
REMARK  169  A    between atoms: _416  and  _419
REMARK  170  A    between atoms: _419  and  _420
REMARK  171  A    between atoms: _430  and  _432
REMARK  172  A    between atoms: _432  and  _433
REMARK  173  A    between atoms: _432  and  _435
REMARK  174  A    between atoms: _435  and  _436
REMARK  175  A    between atoms: _436  and  _437
REMARK  176  A    between atoms: _442  and  _444
REMARK  177  A    between atoms: _444  and  _445
REMARK  178  A    between atoms: _444  and  _447
REMARK  179  A    between atoms: _449  and  _451
REMARK  180  A    between atoms: _451  and  _452
REMARK  181  A    between atoms: _454  and  _456
REMARK  182  A    between atoms: _456  and  _457
REMARK  183  A    between atoms: _456  and  _459
REMARK  184  A    between atoms: _459  and  _460
REMARK  185  A    between atoms: _463  and  _465
REMARK  186  A    between atoms: _465  and  _466
REMARK  187  A    between atoms: _465  and  _468
REMARK  188  A    between atoms: _471  and  _473
REMARK  189  A    between atoms: _473  and  _474
REMARK  190  A    between atoms: _473  and  _476
REMARK  191  A    between atoms: _476  and  _477
REMARK  192  A    between atoms: _477  and  _478
REMARK  193  A    between atoms: _483  and  _485
REMARK  194  A    between atoms: _485  and  _486
REMARK  195  A    between atoms: _485  and  _488
REMARK  196  A    between atoms: _488  and  _489
REMARK  197  A    between atoms: _492  and  _494
REMARK  198  A    between atoms: _494  and  _495
REMARK  199  A    between atoms: _494  and  _497
REMARK  200  A    between atoms: _497  and  _498
REMARK  201  A    between atoms: _501  and  _503
REMARK  202  A    between atoms: _503  and  _504
REMARK  203  A    between atoms: _503  and  _506
REMARK  204  A    between atoms: _506  and  _507
REMARK  205  A    between atoms: _507  and  _508
REMARK  206  A    between atoms: _510  and  _512
REMARK  207  A    between atoms: _512  and  _513
REMARK  208  A    between atoms: _512  and  _515
REMARK  209  A    between atoms: _515  and  _516
REMARK  210  A    between atoms: _519  and  _521
REMARK  211  A    between atoms: _521  and  _522
REMARK  212  A    between atoms: _521  and  _524
REMARK  213  A    between atoms: _524  and  _525
REMARK  214  A    between atoms: _526  and  ZN_632
REMARK  215  A    between atoms: _530  and  _532
REMARK  216  A    between atoms: _532  and  _533
REMARK  217  A    between atoms: _532  and  _535
REMARK  218  A    between atoms: _535  and  _536
REMARK  219  A    between atoms: _536  and  _537
REMARK  220  A    between atoms: _537  and  _538
REMARK  221  A    between atoms: _547  and  _549
REMARK  222  A    between atoms: _549  and  _550
REMARK  223  A    between atoms: _553  and  _555
REMARK  224  A    between atoms: _555  and  _556
REMARK  225  A    between atoms: _555  and  _558
REMARK  226  A    between atoms: _558  and  _559
REMARK  227  A    between atoms: _562  and  _564
REMARK  228  A    between atoms: _564  and  _565
REMARK  229  A    between atoms: _564  and  _567
REMARK  230  A    between atoms: _567  and  _568
REMARK  231  A    between atoms: _571  and  _573
REMARK  232  A    between atoms: _573  and  _574
REMARK  233  A    between atoms: _576  and  _578
REMARK  234  A    between atoms: _578  and  _579
REMARK  235  A    between atoms: _578  and  _581
REMARK  236  A    between atoms: _581  and  _582
REMARK  237  A    between atoms: _584  and  _586
REMARK  238  A    between atoms: _586  and  _587
REMARK  239  A    between atoms: _586  and  _589
REMARK  240  A    between atoms: _589  and  _590
REMARK  241  A    between atoms: _590  and  _591
REMARK  242  A    between atoms: _593  and  _595
REMARK  243  A    between atoms: _595  and  _596
REMARK  244  A    between atoms: _595  and  _598
REMARK  245  A    between atoms: _598  and  _599
REMARK  246  A    between atoms: _599  and  _600
REMARK  247  A    between atoms: _603  and  _605
REMARK  248  A    between atoms: _605  and  _606
REMARK  249  A    between atoms: _605  and  _608
REMARK  250  A    between atoms: _608  and  _609
REMARK  251  A    between atoms: _609  and  _610
REMARK  252  A    between atoms: _610  and  _611
REMARK  253  A    between atoms: _620  and  _622
REMARK  254  A    between atoms: _622  and  _623
REMARK  255  A    between atoms: _622  and  _625
REMARK  256  A    between atoms: _625  and  _626
REMARK                            x       y       z     vdW  Elec       q    Type
REMARK                         _______ _______ _______ _____ _____    ______ ____
ROOT
ATOM      1  CA  ARG A   3     -20.370 -34.437   9.432  0.00  0.00    +0.149 C 
ENDROOT
BRANCH   1   3
ATOM      2  C   HIS A   2     -20.491 -32.156  10.239  0.00  0.00    +0.241 C 
ATOM      3  N   ARG A   3     -20.989 -33.369  10.213  0.00  0.00    -0.297 N 
ATOM      4  H   ARG A   3     -21.847 -33.576  10.763  0.00  0.00    +0.150 HD
ATOM      5  O   HIS A   2     -19.424 -31.856   9.697  0.00  0.00    -0.273 OA
BRANCH   2   6
ATOM      6  CA  HIS A   2     -21.264 -31.171  11.049  0.00  0.00    +0.155 C 
BRANCH   6   9
ATOM      7  C   CYS A   1     -20.593 -30.436  13.282  0.00  0.00    +0.239 C 
ATOM      8  O   CYS A   1     -21.664 -30.784  13.803  0.00  0.00    -0.274 OA
ATOM      9  N   HIS A   2     -20.346 -30.526  11.980  0.00  0.00    -0.297 N 
ATOM     10  H   HIS A   2     -19.463 -30.120  11.610  0.00  0.00    +0.150 HD
BRANCH   7  11
ATOM     11  CA  CYS A   1     -19.457 -29.884  14.126  0.00  0.00    +0.156 C 
BRANCH  11  12
ATOM     12  CB  CYS A   1     -18.585 -31.078  14.527  0.00  0.00    +0.095 C 
ATOM     13  SG  CYS A   1     -17.178 -30.629  15.552  0.00  0.00    -0.080 S 
ENDBRANCH  11  12
BRANCH  11  14
ATOM     14  N   CYS A   1     -19.981 -29.225  15.307  0.00  0.00    -0.237 NA
ATOM     15  H   CYS A   1     -20.479 -29.796  16.020  0.00  0.00    +0.142 HD
ENDBRANCH  11  14
ENDBRANCH   7  11
ENDBRANCH   6   9
BRANCH   6  16
ATOM     16  CB  HIS A   2     -21.965 -30.147  10.161  0.00  0.00    +0.076 C 
BRANCH  16  17
ATOM     17  CG  HIS A   2     -22.948 -29.310  10.936  0.00  0.00    +0.082 A 
ATOM     18  ND1 HIS A   2     -22.571 -28.203  11.610  0.00  0.00    -0.227 NA
ATOM     19  CE1 HIS A   2     -23.661 -27.672  12.251  0.00  0.00    +0.199 A 
ATOM     20  NE2 HIS A   2     -24.728 -28.445  11.974  0.00  0.00    -0.221 NA
ATOM     21  CD2 HIS A   2     -24.311 -29.490  11.182  0.00  0.00    +0.115 A 
ENDBRANCH  16  17
ENDBRANCH   6  16
ENDBRANCH   2   6
ENDBRANCH   1   3
BRANCH   1  22
ATOM     22  C   ARG A   3     -21.532 -35.113   8.698  0.00  0.00    +0.241 C 
ATOM     23  O   ARG A   3     -22.531 -35.478   9.320  0.00  0.00    -0.273 OA
ATOM     24  N   ASN A   4     -21.375 -35.266   7.386  0.00  0.00    -0.297 N 
ATOM     25  H   ASN A   4     -20.445 -35.066   6.965  0.00  0.00    +0.150 HD
BRANCH  24  26
ATOM     26  CA  ASN A   4     -22.464 -35.705   6.517  0.00  0.00    +0.158 C 
BRANCH  26  27
ATOM     27  C   ASN A   4     -22.633 -37.210   6.528  0.00  0.00    +0.241 C 
ATOM     28  N   GLU A   5     -23.078 -37.715   7.671  0.00  0.00    -0.297 N 
ATOM     29  H   GLU A   5     -23.360 -37.060   8.428  0.00  0.00    +0.150 HD
ATOM     30  O   ASN A   4     -22.349 -37.897   5.548  0.00  0.00    -0.273 OA
BRANCH  28  31
ATOM     31  CA  GLU A   5     -23.188 -39.134   7.908  0.00  0.00    +0.149 C 
BRANCH  31  32
ATOM     32  C   GLU A   5     -24.263 -39.690   6.984  0.00  0.00    +0.244 C 
ATOM     33  O   GLU A   5     -25.334 -39.089   6.883  0.00  0.00    -0.273 OA
ATOM     34  N   PRO A   6     -23.996 -40.845   6.334  0.00  0.00    -0.273 N 
ATOM     35  CD  PRO A   6     -22.788 -41.696   6.381  0.00  0.00    +0.094 C 
ATOM     36  CG  PRO A   6     -22.959 -42.603   5.194  0.00  0.00    +0.024 C 
ATOM     37  CB  PRO A   6     -24.440 -42.801   5.108  0.00  0.00    +0.030 C 
ATOM     38  CA  PRO A   6     -25.036 -41.443   5.493  0.00  0.00    +0.140 C 
BRANCH  38  39
ATOM     39  C   PRO A   6     -26.332 -41.598   6.283  0.00  0.00    +0.227 C 
ATOM     40  O   PRO A   6     -26.312 -41.983   7.459  0.00  0.00    -0.286 OA
ENDBRANCH  38  39
ENDBRANCH  31  32
BRANCH  31  41
ATOM     41  CB  GLU A   5     -23.604 -39.350   9.367  0.00  0.00    +0.041 C 
BRANCH  41  42
ATOM     42  CG  GLU A   5     -23.837 -40.801   9.753  0.00  0.00    +0.116 C 
BRANCH  42  43
ATOM     43  CD  GLU A   5     -22.557 -41.618   9.765  0.00  0.00    +0.365 C 
ATOM     44  OE2 GLU A   5     -21.442 -41.026   9.758  0.00  0.00    -0.246 OA
ATOM     45  OE1 GLU A   5     -22.675 -42.867   9.750  0.00  0.00    -0.246 OA
ENDBRANCH  42  43
ENDBRANCH  41  42
ENDBRANCH  31  41
ENDBRANCH  28  31
ENDBRANCH  26  27
BRANCH  26  46
ATOM     46  CB  ASN A   4     -22.276 -35.178   5.107  0.00  0.00    +0.114 C 
BRANCH  46  47
ATOM     47  CG  ASN A   4     -23.459 -35.500   4.209  0.00  0.00    +0.222 C 
ATOM     48  OD1 ASN A   4     -24.547 -35.864   4.681  0.00  0.00    -0.275 OA
ATOM     49  ND2 ASN A   4     -23.250 -35.380   2.918  0.00  0.00    -0.329 N 
ATOM     50 HD21 ASN A   4     -22.321 -35.071   2.568  0.00  0.00    +0.145 HD
ATOM     51 HD22 ASN A   4     -24.014 -35.594   2.245  0.00  0.00    +0.145 HD
ENDBRANCH  46  47
ENDBRANCH  26  46
ENDBRANCH  24  26
ENDBRANCH   1  22
BRANCH   1  52
ATOM     52  CB  ARG A   3     -19.618 -35.451  10.322  0.00  0.00    +0.033 C 
BRANCH  52  53
ATOM     53  CG  ARG A   3     -18.422 -34.850  11.025  0.00  0.00    +0.045 C 
BRANCH  53  54
ATOM     54  CD  ARG A   3     -17.560 -35.836  11.796  0.00  0.00    +0.174 C 
BRANCH  54  55
ATOM     55  NE  ARG A   3     -16.601 -35.102  12.631  0.00  0.00    -0.265 N 
ATOM     56  CZ  ARG A   3     -15.727 -35.667  13.462  0.00  0.00    +0.342 C 
ATOM     57  NH2 ARG A   3     -14.896 -34.919  14.186  0.00  0.00    -0.292 N 
ATOM     58 HH21 ARG A   3     -14.218 -35.371  14.832  0.00  0.00    +0.255 HD
ATOM     59 HH22 ARG A   3     -14.925 -33.883  14.106  0.00  0.00    +0.255 HD
ATOM     60  NH1 ARG A   3     -15.636 -37.001  13.513  0.00  0.00    -0.292 N 
ATOM     61 HH11 ARG A   3     -14.957 -37.452  14.159  0.00  0.00    +0.255 HD
ATOM     62 HH12 ARG A   3     -16.245 -37.587  12.907  0.00  0.00    +0.255 HD
ATOM     63  HE  ARG A   3     -16.604 -34.064  12.569  0.00  0.00    +0.259 HD
ENDBRANCH  54  55
ENDBRANCH  53  54
ENDBRANCH  52  53
ENDBRANCH   1  52
TORSDOF 23
REMARK  Name = ../refined-set-2016/4hwp/4hwp_pocket.pdb
REMARK  256 active torsions:
REMARK  status: ('A' for Active; 'I' for Inactive)
REMARK    1  A    between atoms: _1  and  _3
REMARK    2  A    between atoms: _3  and  _4
REMARK    3  A    between atoms: _6  and  _8
REMARK    4  A    between atoms: _8  and  _9
REMARK    5  A    between atoms: _8  and  _11
REMARK    6  A    between atoms: _11  and  _12
REMARK    7  A    between atoms: _17  and  _19
REMARK    8  A    between atoms: _19  and  _20
REMARK    9  A    between atoms: _19  and  _22
REMARK   10  A    between atoms: _22  and  _23
REMARK   11  A    between atoms: _28  and  _29
REMARK   12  A    between atoms: _31  and  _33
REMARK   13  A    between atoms: _33  and  _34
REMARK   14  A    between atoms: _38  and  _39
REMARK   15  A    between atoms: _44  and  _46
REMARK   16  A    between atoms: _46  and  _47
REMARK   17  A    between atoms: _46  and  _49
REMARK   18  A    between atoms: _49  and  _50
REMARK   19  A    between atoms: _50  and  _51
REMARK   20  A    between atoms: _53  and  _55
REMARK   21  A    between atoms: _55  and  _56
REMARK   22  A    between atoms: _55  and  _58
REMARK   23  A    between atoms: _58  and  _59
REMARK   24  A    between atoms: _64  and  _66
REMARK   25  A    between atoms: _66  and  _67
REMARK   26  A    between atoms: _66  and  _69
REMARK   27  A    between atoms: _69  and  _70
REMARK   28  A    between atoms: _70  and  ZN_632
REMARK   29  A    between atoms: _72  and  _73
REMARK   30  A    between atoms: _78  and  _80
REMARK   31  A    between atoms: _80  and  _81
REMARK   32  A    between atoms: _80  and  _83
REMARK   33  A    between atoms: _83  and  _84
REMARK   34  A    between atoms: _89  and  _91
REMARK   35  A    between atoms: _91  and  _92
REMARK   36  A    between atoms: _91  and  _94
REMARK   37  A    between atoms: _96  and  _98
REMARK   38  A    between atoms: _98  and  _99
REMARK   39  A    between atoms: _98  and  _101
REMARK   40  A    between atoms: _101  and  _102
REMARK   41  A    between atoms: _107  and  _109
REMARK   42  A    between atoms: _109  and  _110
REMARK   43  A    between atoms: _109  and  _112
REMARK   44  A    between atoms: _112  and  _113
REMARK   45  A    between atoms: _113  and  _114
REMARK   46  A    between atoms: _114  and  _115
REMARK   47  A    between atoms: _124  and  _126
REMARK   48  A    between atoms: _126  and  _127
REMARK   49  A    between atoms: _126  and  _129
REMARK   50  A    between atoms: _129  and  _130
REMARK   51  A    between atoms: _135  and  _137
REMARK   52  A    between atoms: _137  and  _138
REMARK   53  A    between atoms: _137  and  _140
REMARK   54  A    between atoms: _140  and  _141
REMARK   55  A    between atoms: _141  and  _142
REMARK   56  A    between atoms: _146  and  _147
REMARK   57  A    between atoms: _152  and  _154
REMARK   58  A    between atoms: _154  and  _155
REMARK   59  A    between atoms: _154  and  _157
REMARK   60  A    between atoms: _157  and  _158
REMARK   61  A    between atoms: _160  and  _162
REMARK   62  A    between atoms: _162  and  _163
REMARK   63  A    between atoms: _162  and  _165
REMARK   64  A    between atoms: _165  and  _166
REMARK   65  A    between atoms: _169  and  _171
REMARK   66  A    between atoms: _171  and  _172
REMARK   67  A    between atoms: _171  and  _174
REMARK   68  A    between atoms: _174  and  _175
REMARK   69  A    between atoms: _180  and  _182
REMARK   70  A    between atoms: _182  and  _183
REMARK   71  A    between atoms: _185  and  _187
REMARK   72  A    between atoms: _187  and  _188
REMARK   73  A    between atoms: _187  and  _190
REMARK   74  A    between atoms: _190  and  _191
REMARK   75  A    between atoms: _194  and  _196
REMARK   76  A    between atoms: _196  and  _197
REMARK   77  A    between atoms: _196  and  _199
REMARK   78  A    between atoms: _199  and  _200
REMARK   79  A    between atoms: _200  and  _201
REMARK   80  A    between atoms: _203  and  _205
REMARK   81  A    between atoms: _205  and  _206
REMARK   82  A    between atoms: _205  and  _208
REMARK   83  A    between atoms: _208  and  _209
REMARK   84  A    between atoms: _209  and  _210
REMARK   85  A    between atoms: _210  and  _211
REMARK   86  A    between atoms: _220  and  _222
REMARK   87  A    between atoms: _222  and  _223
REMARK   88  A    between atoms: _222  and  _225
REMARK   89  A    between atoms: _228  and  _230
REMARK   90  A    between atoms: _230  and  _231
REMARK   91  A    between atoms: _230  and  _233
REMARK   92  A    between atoms: _233  and  _234
REMARK   93  A    between atoms: _234  and  _235
REMARK   94  A    between atoms: _235  and  _236
REMARK   95  A    between atoms: _245  and  _247
REMARK   96  A    between atoms: _247  and  _248
REMARK   97  A    between atoms: _250  and  _252
REMARK   98  A    between atoms: _252  and  _253
REMARK   99  A    between atoms: _252  and  _255
REMARK  100  A    between atoms: _255  and  _256
REMARK  101  A    between atoms: _262  and  _264
REMARK  102  A    between atoms: _264  and  _265
REMARK  103  A    between atoms: _264  and  _267
REMARK  104  A    between atoms: _267  and  _268
REMARK  105  A    between atoms: _271  and  _273
REMARK  106  A    between atoms: _273  and  _274
REMARK  107  A    between atoms: _273  and  _276
REMARK  108  A    between atoms: _276  and  _277
REMARK  109  A    between atoms: _277  and  _278
REMARK  110  A    between atoms: _283  and  _285
REMARK  111  A    between atoms: _285  and  _286
REMARK  112  A    between atoms: _285  and  _288
REMARK  113  A    between atoms: _288  and  _289
REMARK  114  A    between atoms: _292  and  _294
REMARK  115  A    between atoms: _294  and  _295
REMARK  116  A    between atoms: _294  and  _297
REMARK  117  A    between atoms: _297  and  _298
REMARK  118  A    between atoms: _301  and  _303
REMARK  119  A    between atoms: _303  and  _304
REMARK  120  A    between atoms: _307  and  _309
REMARK  121  A    between atoms: _309  and  _310
REMARK  122  A    between atoms: _309  and  _312
REMARK  123  A    between atoms: _312  and  _313
REMARK  124  A    between atoms: _317  and  ZN_632
REMARK  125  A    between atoms: _318  and  _320
REMARK  126  A    between atoms: _320  and  _321
REMARK  127  A    between atoms: _320  and  _323
REMARK  128  A    between atoms: _323  and  _324
REMARK  129  A    between atoms: _327  and  _329
REMARK  130  A    between atoms: _329  and  _330
REMARK  131  A    between atoms: _329  and  _332
REMARK  132  A    between atoms: _332  and  _333
REMARK  133  A    between atoms: _335  and  _337
REMARK  134  A    between atoms: _337  and  _338
REMARK  135  A    between atoms: _337  and  _340
REMARK  136  A    between atoms: _340  and  _341
REMARK  137  A    between atoms: _341  and  _342
REMARK  138  A    between atoms: _345  and  _347
REMARK  139  A    between atoms: _347  and  _348
REMARK  140  A    between atoms: _350  and  _352
REMARK  141  A    between atoms: _352  and  _353
REMARK  142  A    between atoms: _356  and  _358
REMARK  143  A    between atoms: _358  and  _359
REMARK  144  A    between atoms: _358  and  _361
REMARK  145  A    between atoms: _361  and  _362
REMARK  146  A    between atoms: _368  and  _370
REMARK  147  A    between atoms: _370  and  _371
REMARK  148  A    between atoms: _370  and  _373
REMARK  149  A    between atoms: _373  and  _374
REMARK  150  A    between atoms: _379  and  _380
REMARK  151  A    between atoms: _382  and  _384
REMARK  152  A    between atoms: _384  and  _385
REMARK  153  A    between atoms: _384  and  _387
REMARK  154  A    between atoms: _387  and  _388
REMARK  155  A    between atoms: _388  and  _389
REMARK  156  A    between atoms: _389  and  _390
REMARK  157  A    between atoms: _390  and  _391
REMARK  158  A    between atoms: _395  and  _397
REMARK  159  A    between atoms: _397  and  _398
REMARK  160  A    between atoms: _397  and  _400
REMARK  161  A    between atoms: _400  and  _401
REMARK  162  A    between atoms: _404  and  _406
REMARK  163  A    between atoms: _406  and  _407
REMARK  164  A    between atoms: _406  and  _409
REMARK  165  A    between atoms: _409  and  _410
REMARK  166  A    between atoms: _410  and  _411
REMARK  167  A    between atoms: _414  and  _416
REMARK  168  A    between atoms: _416  and  _417
REMARK  169  A    between atoms: _416  and  _419
REMARK  170  A    between atoms: _419  and  _420
REMARK  171  A    between atoms: _430  and  _432
REMARK  172  A    between atoms: _432  and  _433
REMARK  173  A    between atoms: _432  and  _435
REMARK  174  A    between atoms: _435  and  _436
REMARK  175  A    between atoms: _436  and  _437
REMARK  176  A    between atoms: _442  and  _444
REMARK  177  A    between atoms: _444  and  _445
REMARK  178  A    between atoms: _444  and  _447
REMARK  179  A    between atoms: _449  and  _451
REMARK  180  A    between atoms: _451  and  _452
REMARK  181  A    between atoms: _454  and  _456
REMARK  182  A    between atoms: _456  and  _457
REMARK  183  A    between atoms: _456  and  _459
REMARK  184  A    between atoms: _459  and  _460
REMARK  185  A    between atoms: _463  and  _465
REMARK  186  A    between atoms: _465  and  _466
REMARK  187  A    between atoms: _465  and  _468
REMARK  188  A    between atoms: _471  and  _473
REMARK  189  A    between atoms: _473  and  _474
REMARK  190  A    between atoms: _473  and  _476
REMARK  191  A    between atoms: _476  and  _477
REMARK  192  A    between atoms: _477  and  _478
REMARK  193  A    between atoms: _483  and  _485
REMARK  194  A    between atoms: _485  and  _486
REMARK  195  A    between atoms: _485  and  _488
REMARK  196  A    between atoms: _488  and  _489
REMARK  197  A    between atoms: _492  and  _494
REMARK  198  A    between atoms: _494  and  _495
REMARK  199  A    between atoms: _494  and  _497
REMARK  200  A    between atoms: _497  and  _498
REMARK  201  A    between atoms: _501  and  _503
REMARK  202  A    between atoms: _503  and  _504
REMARK  203  A    between atoms: _503  and  _506
REMARK  204  A    between atoms: _506  and  _507
REMARK  205  A    between atoms: _507  and  _508
REMARK  206  A    between atoms: _510  and  _512
REMARK  207  A    between atoms: _512  and  _513
REMARK  208  A    between atoms: _512  and  _515
REMARK  209  A    between atoms: _515  and  _516
REMARK  210  A    between atoms: _519  and  _521
REMARK  211  A    between atoms: _521  and  _522
REMARK  212  A    between atoms: _521  and  _524
REMARK  213  A    between atoms: _524  and  _525
REMARK  214  A    between atoms: _526  and  ZN_632
REMARK  215  A    between atoms: _530  and  _532
REMARK  216  A    between atoms: _532  and  _533
REMARK  217  A    between atoms: _532  and  _535
REMARK  218  A    between atoms: _535  and  _536
REMARK  219  A    between atoms: _536  and  _537
REMARK  220  A    between atoms: _537  and  _538
REMARK  221  A    between atoms: _547  and  _549
REMARK  222  A    between atoms: _549  and  _550
REMARK  223  A    between atoms: _553  and  _555
REMARK  224  A    between atoms: _555  and  _556
REMARK  225  A    between atoms: _555  and  _558
REMARK  226  A    between atoms: _558  and  _559
REMARK  227  A    between atoms: _562  and  _564
REMARK  228  A    between atoms: _564  and  _565
REMARK  229  A    between atoms: _564  and  _567
REMARK  230  A    between atoms: _567  and  _568
REMARK  231  A    between atoms: _571  and  _573
REMARK  232  A    between atoms: _573  and  _574
REMARK  233  A    between atoms: _576  and  _578
REMARK  234  A    between atoms: _578  and  _579
REMARK  235  A    between atoms: _578  and  _581
REMARK  236  A    between atoms: _581  and  _582
REMARK  237  A    between atoms: _584  and  _586
REMARK  238  A    between atoms: _586  and  _587
REMARK  239  A    between atoms: _586  and  _589
REMARK  240  A    between atoms: _589  and  _590
REMARK  241  A    between atoms: _590  and  _591
REMARK  242  A    between atoms: _593  and  _595
REMARK  243  A    between atoms: _595  and  _596
REMARK  244  A    between atoms: _595  and  _598
REMARK  245  A    between atoms: _598  and  _599
REMARK  246  A    between atoms: _599  and  _600
REMARK  247  A    between atoms: _603  and  _605
REMARK  248  A    between atoms: _605  and  _606
REMARK  249  A    between atoms: _605  and  _608
REMARK  250  A    between atoms: _608  and  _609
REMARK  251  A    between atoms: _609  and  _610
REMARK  252  A    between atoms: _610  and  _611
REMARK  253  A    between atoms: _620  and  _622
REMARK  254  A    between atoms: _622  and  _623
REMARK  255  A    between atoms: _622  and  _625
REMARK  256  A    between atoms: _625  and  _626
REMARK                            x       y       z     vdW  Elec       q    Type
REMARK                         _______ _______ _______ _____ _____    ______ ____
ROOT
ATOM      1  CA  SER A   1      -6.501 -46.841  18.033  0.00  0.00    +0.163 C 
ENDROOT
BRANCH   1   2
ATOM      2  N   SER A   1      -6.290 -46.687  19.459  0.00  0.00    -0.237 NA
ATOM      3  H   SER A   1      -6.576 -45.798  19.916  0.00  0.00    +0.142 HD
ENDBRANCH   1   2
BRANCH   1   4
ATOM      4  C   SER A   1      -5.275 -46.349  17.243  0.00  0.00    +0.227 C 
ATOM      5  O   SER A   1      -4.822 -45.191  17.337  0.00  0.00    -0.287 OA
ENDBRANCH   1   4
BRANCH   1   6
ATOM      6  CB  SER A   1      -7.760 -46.095  17.576  0.00  0.00    +0.162 C 
BRANCH   6   7
ATOM      7  OG  SER A   1      -8.873 -46.667  18.195  0.00  0.00    -0.380 OA
ATOM      8  H   SER A   1      -9.691 -46.191  17.905  0.00  0.00    +0.211 HD
ENDBRANCH   6   7
ENDBRANCH   1   6
TORSDOF 4
REMARK  Name = ../refined-set-2016/4hwp/4hwp_pocket.pdb
REMARK  256 active torsions:
REMARK  status: ('A' for Active; 'I' for Inactive)
REMARK    1  A    between atoms: _1  and  _3
REMARK    2  A    between atoms: _3  and  _4
REMARK    3  A    between atoms: _6  and  _8
REMARK    4  A    between atoms: _8  and  _9
REMARK    5  A    between atoms: _8  and  _11
REMARK    6  A    between atoms: _11  and  _12
REMARK    7  A    between atoms: _17  and  _19
REMARK    8  A    between atoms: _19  and  _20
REMARK    9  A    between atoms: _19  and  _22
REMARK   10  A    between atoms: _22  and  _23
REMARK   11  A    between atoms: _28  and  _29
REMARK   12  A    between atoms: _31  and  _33
REMARK   13  A    between atoms: _33  and  _34
REMARK   14  A    between atoms: _38  and  _39
REMARK   15  A    between atoms: _44  and  _46
REMARK   16  A    between atoms: _46  and  _47
REMARK   17  A    between atoms: _46  and  _49
REMARK   18  A    between atoms: _49  and  _50
REMARK   19  A    between atoms: _50  and  _51
REMARK   20  A    between atoms: _53  and  _55
REMARK   21  A    between atoms: _55  and  _56
REMARK   22  A    between atoms: _55  and  _58
REMARK   23  A    between atoms: _58  and  _59
REMARK   24  A    between atoms: _64  and  _66
REMARK   25  A    between atoms: _66  and  _67
REMARK   26  A    between atoms: _66  and  _69
REMARK   27  A    between atoms: _69  and  _70
REMARK   28  A    between atoms: _70  and  ZN_632
REMARK   29  A    between atoms: _72  and  _73
REMARK   30  A    between atoms: _78  and  _80
REMARK   31  A    between atoms: _80  and  _81
REMARK   32  A    between atoms: _80  and  _83
REMARK   33  A    between atoms: _83  and  _84
REMARK   34  A    between atoms: _89  and  _91
REMARK   35  A    between atoms: _91  and  _92
REMARK   36  A    between atoms: _91  and  _94
REMARK   37  A    between atoms: _96  and  _98
REMARK   38  A    between atoms: _98  and  _99
REMARK   39  A    between atoms: _98  and  _101
REMARK   40  A    between atoms: _101  and  _102
REMARK   41  A    between atoms: _107  and  _109
REMARK   42  A    between atoms: _109  and  _110
REMARK   43  A    between atoms: _109  and  _112
REMARK   44  A    between atoms: _112  and  _113
REMARK   45  A    between atoms: _113  and  _114
REMARK   46  A    between atoms: _114  and  _115
REMARK   47  A    between atoms: _124  and  _126
REMARK   48  A    between atoms: _126  and  _127
REMARK   49  A    between atoms: _126  and  _129
REMARK   50  A    between atoms: _129  and  _130
REMARK   51  A    between atoms: _135  and  _137
REMARK   52  A    between atoms: _137  and  _138
REMARK   53  A    between atoms: _137  and  _140
REMARK   54  A    between atoms: _140  and  _141
REMARK   55  A    between atoms: _141  and  _142
REMARK   56  A    between atoms: _146  and  _147
REMARK   57  A    between atoms: _152  and  _154
REMARK   58  A    between atoms: _154  and  _155
REMARK   59  A    between atoms: _154  and  _157
REMARK   60  A    between atoms: _157  and  _158
REMARK   61  A    between atoms: _160  and  _162
REMARK   62  A    between atoms: _162  and  _163
REMARK   63  A    between atoms: _162  and  _165
REMARK   64  A    between atoms: _165  and  _166
REMARK   65  A    between atoms: _169  and  _171
REMARK   66  A    between atoms: _171  and  _172
REMARK   67  A    between atoms: _171  and  _174
REMARK   68  A    between atoms: _174  and  _175
REMARK   69  A    between atoms: _180  and  _182
REMARK   70  A    between atoms: _182  and  _183
REMARK   71  A    between atoms: _185  and  _187
REMARK   72  A    between atoms: _187  and  _188
REMARK   73  A    between atoms: _187  and  _190
REMARK   74  A    between atoms: _190  and  _191
REMARK   75  A    between atoms: _194  and  _196
REMARK   76  A    between atoms: _196  and  _197
REMARK   77  A    between atoms: _196  and  _199
REMARK   78  A    between atoms: _199  and  _200
REMARK   79  A    between atoms: _200  and  _201
REMARK   80  A    between atoms: _203  and  _205
REMARK   81  A    between atoms: _205  and  _206
REMARK   82  A    between atoms: _205  and  _208
REMARK   83  A    between atoms: _208  and  _209
REMARK   84  A    between atoms: _209  and  _210
REMARK   85  A    between atoms: _210  and  _211
REMARK   86  A    between atoms: _220  and  _222
REMARK   87  A    between atoms: _222  and  _223
REMARK   88  A    between atoms: _222  and  _225
REMARK   89  A    between atoms: _228  and  _230
REMARK   90  A    between atoms: _230  and  _231
REMARK   91  A    between atoms: _230  and  _233
REMARK   92  A    between atoms: _233  and  _234
REMARK   93  A    between atoms: _234  and  _235
REMARK   94  A    between atoms: _235  and  _236
REMARK   95  A    between atoms: _245  and  _247
REMARK   96  A    between atoms: _247  and  _248
REMARK   97  A    between atoms: _250  and  _252
REMARK   98  A    between atoms: _252  and  _253
REMARK   99  A    between atoms: _252  and  _255
REMARK  100  A    between atoms: _255  and  _256
REMARK  101  A    between atoms: _262  and  _264
REMARK  102  A    between atoms: _264  and  _265
REMARK  103  A    between atoms: _264  and  _267
REMARK  104  A    between atoms: _267  and  _268
REMARK  105  A    between atoms: _271  and  _273
REMARK  106  A    between atoms: _273  and  _274
REMARK  107  A    between atoms: _273  and  _276
REMARK  108  A    between atoms: _276  and  _277
REMARK  109  A    between atoms: _277  and  _278
REMARK  110  A    between atoms: _283  and  _285
REMARK  111  A    between atoms: _285  and  _286
REMARK  112  A    between atoms: _285  and  _288
REMARK  113  A    between atoms: _288  and  _289
REMARK  114  A    between atoms: _292  and  _294
REMARK  115  A    between atoms: _294  and  _295
REMARK  116  A    between atoms: _294  and  _297
REMARK  117  A    between atoms: _297  and  _298
REMARK  118  A    between atoms: _301  and  _303
REMARK  119  A    between atoms: _303  and  _304
REMARK  120  A    between atoms: _307  and  _309
REMARK  121  A    between atoms: _309  and  _310
REMARK  122  A    between atoms: _309  and  _312
REMARK  123  A    between atoms: _312  and  _313
REMARK  124  A    between atoms: _317  and  ZN_632
REMARK  125  A    between atoms: _318  and  _320
REMARK  126  A    between atoms: _320  and  _321
REMARK  127  A    between atoms: _320  and  _323
REMARK  128  A    between atoms: _323  and  _324
REMARK  129  A    between atoms: _327  and  _329
REMARK  130  A    between atoms: _329  and  _330
REMARK  131  A    between atoms: _329  and  _332
REMARK  132  A    between atoms: _332  and  _333
REMARK  133  A    between atoms: _335  and  _337
REMARK  134  A    between atoms: _337  and  _338
REMARK  135  A    between atoms: _337  and  _340
REMARK  136  A    between atoms: _340  and  _341
REMARK  137  A    between atoms: _341  and  _342
REMARK  138  A    between atoms: _345  and  _347
REMARK  139  A    between atoms: _347  and  _348
REMARK  140  A    between atoms: _350  and  _352
REMARK  141  A    between atoms: _352  and  _353
REMARK  142  A    between atoms: _356  and  _358
REMARK  143  A    between atoms: _358  and  _359
REMARK  144  A    between atoms: _358  and  _361
REMARK  145  A    between atoms: _361  and  _362
REMARK  146  A    between atoms: _368  and  _370
REMARK  147  A    between atoms: _370  and  _371
REMARK  148  A    between atoms: _370  and  _373
REMARK  149  A    between atoms: _373  and  _374
REMARK  150  A    between atoms: _379  and  _380
REMARK  151  A    between atoms: _382  and  _384
REMARK  152  A    between atoms: _384  and  _385
REMARK  153  A    between atoms: _384  and  _387
REMARK  154  A    between atoms: _387  and  _388
REMARK  155  A    between atoms: _388  and  _389
REMARK  156  A    between atoms: _389  and  _390
REMARK  157  A    between atoms: _390  and  _391
REMARK  158  A    between atoms: _395  and  _397
REMARK  159  A    between atoms: _397  and  _398
REMARK  160  A    between atoms: _397  and  _400
REMARK  161  A    between atoms: _400  and  _401
REMARK  162  A    between atoms: _404  and  _406
REMARK  163  A    between atoms: _406  and  _407
REMARK  164  A    between atoms: _406  and  _409
REMARK  165  A    between atoms: _409  and  _410
REMARK  166  A    between atoms: _410  and  _411
REMARK  167  A    between atoms: _414  and  _416
REMARK  168  A    between atoms: _416  and  _417
REMARK  169  A    between atoms: _416  and  _419
REMARK  170  A    between atoms: _419  and  _420
REMARK  171  A    between atoms: _430  and  _432
REMARK  172  A    between atoms: _432  and  _433
REMARK  173  A    between atoms: _432  and  _435
REMARK  174  A    between atoms: _435  and  _436
REMARK  175  A    between atoms: _436  and  _437
REMARK  176  A    between atoms: _442  and  _444
REMARK  177  A    between atoms: _444  and  _445
REMARK  178  A    between atoms: _444  and  _447
REMARK  179  A    between atoms: _449  and  _451
REMARK  180  A    between atoms: _451  and  _452
REMARK  181  A    between atoms: _454  and  _456
REMARK  182  A    between atoms: _456  and  _457
REMARK  183  A    between atoms: _456  and  _459
REMARK  184  A    between atoms: _459  and  _460
REMARK  185  A    between atoms: _463  and  _465
REMARK  186  A    between atoms: _465  and  _466
REMARK  187  A    between atoms: _465  and  _468
REMARK  188  A    between atoms: _471  and  _473
REMARK  189  A    between atoms: _473  and  _474
REMARK  190  A    between atoms: _473  and  _476
REMARK  191  A    between atoms: _476  and  _477
REMARK  192  A    between atoms: _477  and  _478
REMARK  193  A    between atoms: _483  and  _485
REMARK  194  A    between atoms: _485  and  _486
REMARK  195  A    between atoms: _485  and  _488
REMARK  196  A    between atoms: _488  and  _489
REMARK  197  A    between atoms: _492  and  _494
REMARK  198  A    between atoms: _494  and  _495
REMARK  199  A    between atoms: _494  and  _497
REMARK  200  A    between atoms: _497  and  _498
REMARK  201  A    between atoms: _501  and  _503
REMARK  202  A    between atoms: _503  and  _504
REMARK  203  A    between atoms: _503  and  _506
REMARK  204  A    between atoms: _506  and  _507
REMARK  205  A    between atoms: _507  and  _508
REMARK  206  A    between atoms: _510  and  _512
REMARK  207  A    between atoms: _512  and  _513
REMARK  208  A    between atoms: _512  and  _515
REMARK  209  A    between atoms: _515  and  _516
REMARK  210  A    between atoms: _519  and  _521
REMARK  211  A    between atoms: _521  and  _522
REMARK  212  A    between atoms: _521  and  _524
REMARK  213  A    between atoms: _524  and  _525
REMARK  214  A    between atoms: _526  and  ZN_632
REMARK  215  A    between atoms: _530  and  _532
REMARK  216  A    between atoms: _532  and  _533
REMARK  217  A    between atoms: _532  and  _535
REMARK  218  A    between atoms: _535  and  _536
REMARK  219  A    between atoms: _536  and  _537
REMARK  220  A    between atoms: _537  and  _538
REMARK  221  A    between atoms: _547  and  _549
REMARK  222  A    between atoms: _549  and  _550
REMARK  223  A    between atoms: _553  and  _555
REMARK  224  A    between atoms: _555  and  _556
REMARK  225  A    between atoms: _555  and  _558
REMARK  226  A    between atoms: _558  and  _559
REMARK  227  A    between atoms: _562  and  _564
REMARK  228  A    between atoms: _564  and  _565
REMARK  229  A    between atoms: _564  and  _567
REMARK  230  A    between atoms: _567  and  _568
REMARK  231  A    between atoms: _571  and  _573
REMARK  232  A    between atoms: _573  and  _574
REMARK  233  A    between atoms: _576  and  _578
REMARK  234  A    between atoms: _578  and  _579
REMARK  235  A    between atoms: _578  and  _581
REMARK  236  A    between atoms: _581  and  _582
REMARK  237  A    between atoms: _584  and  _586
REMARK  238  A    between atoms: _586  and  _587
REMARK  239  A    between atoms: _586  and  _589
REMARK  240  A    between atoms: _589  and  _590
REMARK  241  A    between atoms: _590  and  _591
REMARK  242  A    between atoms: _593  and  _595
REMARK  243  A    between atoms: _595  and  _596
REMARK  244  A    between atoms: _595  and  _598
REMARK  245  A    between atoms: _598  and  _599
REMARK  246  A    between atoms: _599  and  _600
REMARK  247  A    between atoms: _603  and  _605
REMARK  248  A    between atoms: _605  and  _606
REMARK  249  A    between atoms: _605  and  _608
REMARK  250  A    between atoms: _608  and  _609
REMARK  251  A    between atoms: _609  and  _610
REMARK  252  A    between atoms: _610  and  _611
REMARK  253  A    between atoms: _620  and  _622
REMARK  254  A    between atoms: _622  and  _623
REMARK  255  A    between atoms: _622  and  _625
REMARK  256  A    between atoms: _625  and  _626
REMARK                            x       y       z     vdW  Elec       q    Type
REMARK                         _______ _______ _______ _____ _____    ______ ____
ROOT
ATOM      1  CA  PHE A   4      -5.782 -39.386   9.888  0.00  0.00    +0.153 C 
ENDROOT
BRANCH   1   4
ATOM      2  C   ALA A   3      -6.445 -40.215  12.048  0.00  0.00    +0.241 C 
ATOM      3  O   ALA A   3      -5.337 -40.793  12.165  0.00  0.00    -0.273 OA
ATOM      4  N   PHE A   4      -6.784 -39.524  10.957  0.00  0.00    -0.297 N 
ATOM      5  H   PHE A   4      -7.728 -39.096  10.865  0.00  0.00    +0.150 HD
BRANCH   2   6
ATOM      6  CA  ALA A   3      -7.469 -40.336  13.153  0.00  0.00    +0.149 C 
ATOM      7  CB  ALA A   3      -7.515 -39.075  13.987  0.00  0.00    +0.031 C 
BRANCH   6   9
ATOM      8  C   GLY A   2      -7.210 -42.741  13.578  0.00  0.00    +0.243 C 
ATOM      9  N   ALA A   3      -7.056 -41.478  13.990  0.00  0.00    -0.297 N 
ATOM     10  H   ALA A   3      -6.635 -41.297  14.923  0.00  0.00    +0.150 HD
ATOM     11  O   GLY A   2      -7.768 -43.031  12.509  0.00  0.00    -0.273 OA
BRANCH   8  12
ATOM     12  CA  GLY A   2      -6.700 -43.824  14.518  0.00  0.00    +0.176 C 
BRANCH  12  15
ATOM     13  C   GLU A   1      -8.454 -45.500  14.210  0.00  0.00    +0.238 C 
ATOM     14  O   GLU A   1      -9.326 -44.689  14.581  0.00  0.00    -0.274 OA
ATOM     15  N   GLY A   2      -7.159 -45.194  14.166  0.00  0.00    -0.296 N 
ATOM     16  H   GLY A   2      -6.466 -45.916  13.884  0.00  0.00    +0.150 HD
BRANCH  13  17
ATOM     17  CA  GLU A   1      -8.817 -46.911  13.769  0.00  0.00    +0.145 C 
BRANCH  17  18
ATOM     18  N   GLU A   1      -7.640 -47.754  13.452  0.00  0.00    -0.238 NA
ATOM     19  H   GLU A   1      -7.068 -48.141  14.230  0.00  0.00    +0.142 HD
ENDBRANCH  17  18
BRANCH  17  20
ATOM     20  CB  GLU A   1      -9.763 -47.614  14.760  0.00  0.00    +0.038 C 
BRANCH  20  21
ATOM     21  CG  GLU A   1     -10.486 -48.828  14.158  0.00  0.00    +0.116 C 
BRANCH  21  22
ATOM     22  CD  GLU A   1     -11.401 -48.479  12.991  0.00  0.00    +0.365 C 
ATOM     23  OE2 GLU A   1     -12.053 -47.425  12.968  0.00  0.00    -0.246 OA
ATOM     24  OE1 GLU A   1     -11.486 -49.281  12.062  0.00  0.00    -0.246 OA
ENDBRANCH  21  22
ENDBRANCH  20  21
ENDBRANCH  17  20
ENDBRANCH  13  17
ENDBRANCH  12  15
ENDBRANCH   8  12
ENDBRANCH   6   9
ENDBRANCH   2   6
ENDBRANCH   1   4
BRANCH   1  25
ATOM     25  C   PHE A   4      -4.512 -38.672  10.366  0.00  0.00    +0.241 C 
ATOM     26  N   TYR A   5      -4.657 -37.840  11.399  0.00  0.00    -0.298 N 
ATOM     27  H   TYR A   5      -5.580 -37.792  11.875  0.00  0.00    +0.150 HD
ATOM     28  O   PHE A   4      -3.424 -38.901   9.819  0.00  0.00    -0.273 OA
BRANCH  26  29
ATOM     29  CA  TYR A   5      -3.559 -36.985  11.893  0.00  0.00    +0.141 C 
BRANCH  29  30
ATOM     30  C   TYR A   5      -2.865 -37.538  13.161  0.00  0.00    +0.227 C 
ATOM     31  O   TYR A   5      -1.839 -36.989  13.572  0.00  0.00    -0.286 OA
ENDBRANCH  29  30
BRANCH  29  32
ATOM     32  CB  TYR A   5      -4.049 -35.546  12.182  0.00  0.00    +0.054 C 
BRANCH  32  33
ATOM     33  CG  TYR A   5      -5.283 -35.556  13.044  0.00  0.00    -0.020 A 
ATOM     34  CD2 TYR A   5      -5.194 -35.711  14.419  0.00  0.00    -0.001 A 
ATOM     35  CE2 TYR A   5      -6.327 -35.798  15.203  0.00  0.00    +0.036 A 
ATOM     36  CZ  TYR A   5      -7.585 -35.699  14.603  0.00  0.00    +0.134 A 
ATOM     37  CE1 TYR A   5      -7.713 -35.542  13.225  0.00  0.00    +0.036 A 
ATOM     38  CD1 TYR A   5      -6.550 -35.485  12.458  0.00  0.00    -0.001 A 
BRANCH  36  39
ATOM     39  OH  TYR A   5      -8.728 -35.742  15.341  0.00  0.00    -0.506 OA
ATOM     40  HH  TYR A   5      -9.511 -35.657  14.741  0.00  0.00    +0.292 HD
ENDBRANCH  36  39
ENDBRANCH  32  33
ENDBRANCH  29  32
ENDBRANCH  26  29
ENDBRANCH   1  25
BRANCH   1  41
ATOM     41  CB  PHE A   4      -6.346 -38.757   8.590  0.00  0.00    +0.055 C 
BRANCH  41  42
ATOM     42  CG  PHE A   4      -6.602 -37.261   8.659  0.00  0.00    -0.020 A 
ATOM     43  CD2 PHE A   4      -7.885 -36.761   8.991  0.00  0.00    -0.004 A 
ATOM     44  CE2 PHE A   4      -8.127 -35.372   9.015  0.00  0.00    -0.000 A 
ATOM     45  CZ  PHE A   4      -7.080 -34.485   8.703  0.00  0.00    -0.000 A 
ATOM     46  CE1 PHE A   4      -5.814 -34.984   8.356  0.00  0.00    -0.000 A 
ATOM     47  CD1 PHE A   4      -5.594 -36.357   8.321  0.00  0.00    -0.004 A 
ENDBRANCH  41  42
ENDBRANCH   1  41
TORSDOF 18
REMARK  Name = ../refined-set-2016/4hwp/4hwp_pocket.pdb
REMARK  256 active torsions:
REMARK  status: ('A' for Active; 'I' for Inactive)
REMARK    1  A    between atoms: _1  and  _3
REMARK    2  A    between atoms: _3  and  _4
REMARK    3  A    between atoms: _6  and  _8
REMARK    4  A    between atoms: _8  and  _9
REMARK    5  A    between atoms: _8  and  _11
REMARK    6  A    between atoms: _11  and  _12
REMARK    7  A    between atoms: _17  and  _19
REMARK    8  A    between atoms: _19  and  _20
REMARK    9  A    between atoms: _19  and  _22
REMARK   10  A    between atoms: _22  and  _23
REMARK   11  A    between atoms: _28  and  _29
REMARK   12  A    between atoms: _31  and  _33
REMARK   13  A    between atoms: _33  and  _34
REMARK   14  A    between atoms: _38  and  _39
REMARK   15  A    between atoms: _44  and  _46
REMARK   16  A    between atoms: _46  and  _47
REMARK   17  A    between atoms: _46  and  _49
REMARK   18  A    between atoms: _49  and  _50
REMARK   19  A    between atoms: _50  and  _51
REMARK   20  A    between atoms: _53  and  _55
REMARK   21  A    between atoms: _55  and  _56
REMARK   22  A    between atoms: _55  and  _58
REMARK   23  A    between atoms: _58  and  _59
REMARK   24  A    between atoms: _64  and  _66
REMARK   25  A    between atoms: _66  and  _67
REMARK   26  A    between atoms: _66  and  _69
REMARK   27  A    between atoms: _69  and  _70
REMARK   28  A    between atoms: _70  and  ZN_632
REMARK   29  A    between atoms: _72  and  _73
REMARK   30  A    between atoms: _78  and  _80
REMARK   31  A    between atoms: _80  and  _81
REMARK   32  A    between atoms: _80  and  _83
REMARK   33  A    between atoms: _83  and  _84
REMARK   34  A    between atoms: _89  and  _91
REMARK   35  A    between atoms: _91  and  _92
REMARK   36  A    between atoms: _91  and  _94
REMARK   37  A    between atoms: _96  and  _98
REMARK   38  A    between atoms: _98  and  _99
REMARK   39  A    between atoms: _98  and  _101
REMARK   40  A    between atoms: _101  and  _102
REMARK   41  A    between atoms: _107  and  _109
REMARK   42  A    between atoms: _109  and  _110
REMARK   43  A    between atoms: _109  and  _112
REMARK   44  A    between atoms: _112  and  _113
REMARK   45  A    between atoms: _113  and  _114
REMARK   46  A    between atoms: _114  and  _115
REMARK   47  A    between atoms: _124  and  _126
REMARK   48  A    between atoms: _126  and  _127
REMARK   49  A    between atoms: _126  and  _129
REMARK   50  A    between atoms: _129  and  _130
REMARK   51  A    between atoms: _135  and  _137
REMARK   52  A    between atoms: _137  and  _138
REMARK   53  A    between atoms: _137  and  _140
REMARK   54  A    between atoms: _140  and  _141
REMARK   55  A    between atoms: _141  and  _142
REMARK   56  A    between atoms: _146  and  _147
REMARK   57  A    between atoms: _152  and  _154
REMARK   58  A    between atoms: _154  and  _155
REMARK   59  A    between atoms: _154  and  _157
REMARK   60  A    between atoms: _157  and  _158
REMARK   61  A    between atoms: _160  and  _162
REMARK   62  A    between atoms: _162  and  _163
REMARK   63  A    between atoms: _162  and  _165
REMARK   64  A    between atoms: _165  and  _166
REMARK   65  A    between atoms: _169  and  _171
REMARK   66  A    between atoms: _171  and  _172
REMARK   67  A    between atoms: _171  and  _174
REMARK   68  A    between atoms: _174  and  _175
REMARK   69  A    between atoms: _180  and  _182
REMARK   70  A    between atoms: _182  and  _183
REMARK   71  A    between atoms: _185  and  _187
REMARK   72  A    between atoms: _187  and  _188
REMARK   73  A    between atoms: _187  and  _190
REMARK   74  A    between atoms: _190  and  _191
REMARK   75  A    between atoms: _194  and  _196
REMARK   76  A    between atoms: _196  and  _197
REMARK   77  A    between atoms: _196  and  _199
REMARK   78  A    between atoms: _199  and  _200
REMARK   79  A    between atoms: _200  and  _201
REMARK   80  A    between atoms: _203  and  _205
REMARK   81  A    between atoms: _205  and  _206
REMARK   82  A    between atoms: _205  and  _208
REMARK   83  A    between atoms: _208  and  _209
REMARK   84  A    between atoms: _209  and  _210
REMARK   85  A    between atoms: _210  and  _211
REMARK   86  A    between atoms: _220  and  _222
REMARK   87  A    between atoms: _222  and  _223
REMARK   88  A    between atoms: _222  and  _225
REMARK   89  A    between atoms: _228  and  _230
REMARK   90  A    between atoms: _230  and  _231
REMARK   91  A    between atoms: _230  and  _233
REMARK   92  A    between atoms: _233  and  _234
REMARK   93  A    between atoms: _234  and  _235
REMARK   94  A    between atoms: _235  and  _236
REMARK   95  A    between atoms: _245  and  _247
REMARK   96  A    between atoms: _247  and  _248
REMARK   97  A    between atoms: _250  and  _252
REMARK   98  A    between atoms: _252  and  _253
REMARK   99  A    between atoms: _252  and  _255
REMARK  100  A    between atoms: _255  and  _256
REMARK  101  A    between atoms: _262  and  _264
REMARK  102  A    between atoms: _264  and  _265
REMARK  103  A    between atoms: _264  and  _267
REMARK  104  A    between atoms: _267  and  _268
REMARK  105  A    between atoms: _271  and  _273
REMARK  106  A    between atoms: _273  and  _274
REMARK  107  A    between atoms: _273  and  _276
REMARK  108  A    between atoms: _276  and  _277
REMARK  109  A    between atoms: _277  and  _278
REMARK  110  A    between atoms: _283  and  _285
REMARK  111  A    between atoms: _285  and  _286
REMARK  112  A    between atoms: _285  and  _288
REMARK  113  A    between atoms: _288  and  _289
REMARK  114  A    between atoms: _292  and  _294
REMARK  115  A    between atoms: _294  and  _295
REMARK  116  A    between atoms: _294  and  _297
REMARK  117  A    between atoms: _297  and  _298
REMARK  118  A    between atoms: _301  and  _303
REMARK  119  A    between atoms: _303  and  _304
REMARK  120  A    between atoms: _307  and  _309
REMARK  121  A    between atoms: _309  and  _310
REMARK  122  A    between atoms: _309  and  _312
REMARK  123  A    between atoms: _312  and  _313
REMARK  124  A    between atoms: _317  and  ZN_632
REMARK  125  A    between atoms: _318  and  _320
REMARK  126  A    between atoms: _320  and  _321
REMARK  127  A    between atoms: _320  and  _323
REMARK  128  A    between atoms: _323  and  _324
REMARK  129  A    between atoms: _327  and  _329
REMARK  130  A    between atoms: _329  and  _330
REMARK  131  A    between atoms: _329  and  _332
REMARK  132  A    between atoms: _332  and  _333
REMARK  133  A    between atoms: _335  and  _337
REMARK  134  A    between atoms: _337  and  _338
REMARK  135  A    between atoms: _337  and  _340
REMARK  136  A    between atoms: _340  and  _341
REMARK  137  A    between atoms: _341  and  _342
REMARK  138  A    between atoms: _345  and  _347
REMARK  139  A    between atoms: _347  and  _348
REMARK  140  A    between atoms: _350  and  _352
REMARK  141  A    between atoms: _352  and  _353
REMARK  142  A    between atoms: _356  and  _358
REMARK  143  A    between atoms: _358  and  _359
REMARK  144  A    between atoms: _358  and  _361
REMARK  145  A    between atoms: _361  and  _362
REMARK  146  A    between atoms: _368  and  _370
REMARK  147  A    between atoms: _370  and  _371
REMARK  148  A    between atoms: _370  and  _373
REMARK  149  A    between atoms: _373  and  _374
REMARK  150  A    between atoms: _379  and  _380
REMARK  151  A    between atoms: _382  and  _384
REMARK  152  A    between atoms: _384  and  _385
REMARK  153  A    between atoms: _384  and  _387
REMARK  154  A    between atoms: _387  and  _388
REMARK  155  A    between atoms: _388  and  _389
REMARK  156  A    between atoms: _389  and  _390
REMARK  157  A    between atoms: _390  and  _391
REMARK  158  A    between atoms: _395  and  _397
REMARK  159  A    between atoms: _397  and  _398
REMARK  160  A    between atoms: _397  and  _400
REMARK  161  A    between atoms: _400  and  _401
REMARK  162  A    between atoms: _404  and  _406
REMARK  163  A    between atoms: _406  and  _407
REMARK  164  A    between atoms: _406  and  _409
REMARK  165  A    between atoms: _409  and  _410
REMARK  166  A    between atoms: _410  and  _411
REMARK  167  A    between atoms: _414  and  _416
REMARK  168  A    between atoms: _416  and  _417
REMARK  169  A    between atoms: _416  and  _419
REMARK  170  A    between atoms: _419  and  _420
REMARK  171  A    between atoms: _430  and  _432
REMARK  172  A    between atoms: _432  and  _433
REMARK  173  A    between atoms: _432  and  _435
REMARK  174  A    between atoms: _435  and  _436
REMARK  175  A    between atoms: _436  and  _437
REMARK  176  A    between atoms: _442  and  _444
REMARK  177  A    between atoms: _444  and  _445
REMARK  178  A    between atoms: _444  and  _447
REMARK  179  A    between atoms: _449  and  _451
REMARK  180  A    between atoms: _451  and  _452
REMARK  181  A    between atoms: _454  and  _456
REMARK  182  A    between atoms: _456  and  _457
REMARK  183  A    between atoms: _456  and  _459
REMARK  184  A    between atoms: _459  and  _460
REMARK  185  A    between atoms: _463  and  _465
REMARK  186  A    between atoms: _465  and  _466
REMARK  187  A    between atoms: _465  and  _468
REMARK  188  A    between atoms: _471  and  _473
REMARK  189  A    between atoms: _473  and  _474
REMARK  190  A    between atoms: _473  and  _476
REMARK  191  A    between atoms: _476  and  _477
REMARK  192  A    between atoms: _477  and  _478
REMARK  193  A    between atoms: _483  and  _485
REMARK  194  A    between atoms: _485  and  _486
REMARK  195  A    between atoms: _485  and  _488
REMARK  196  A    between atoms: _488  and  _489
REMARK  197  A    between atoms: _492  and  _494
REMARK  198  A    between atoms: _494  and  _495
REMARK  199  A    between atoms: _494  and  _497
REMARK  200  A    between atoms: _497  and  _498
REMARK  201  A    between atoms: _501  and  _503
REMARK  202  A    between atoms: _503  and  _504
REMARK  203  A    between atoms: _503  and  _506
REMARK  204  A    between atoms: _506  and  _507
REMARK  205  A    between atoms: _507  and  _508
REMARK  206  A    between atoms: _510  and  _512
REMARK  207  A    between atoms: _512  and  _513
REMARK  208  A    between atoms: _512  and  _515
REMARK  209  A    between atoms: _515  and  _516
REMARK  210  A    between atoms: _519  and  _521
REMARK  211  A    between atoms: _521  and  _522
REMARK  212  A    between atoms: _521  and  _524
REMARK  213  A    between atoms: _524  and  _525
REMARK  214  A    between atoms: _526  and  ZN_632
REMARK  215  A    between atoms: _530  and  _532
REMARK  216  A    between atoms: _532  and  _533
REMARK  217  A    between atoms: _532  and  _535
REMARK  218  A    between atoms: _535  and  _536
REMARK  219  A    between atoms: _536  and  _537
REMARK  220  A    between atoms: _537  and  _538
REMARK  221  A    between atoms: _547  and  _549
REMARK  222  A    between atoms: _549  and  _550
REMARK  223  A    between atoms: _553  and  _555
REMARK  224  A    between atoms: _555  and  _556
REMARK  225  A    between atoms: _555  and  _558
REMARK  226  A    between atoms: _558  and  _559
REMARK  227  A    between atoms: _562  and  _564
REMARK  228  A    between atoms: _564  and  _565
REMARK  229  A    between atoms: _564  and  _567
REMARK  230  A    between atoms: _567  and  _568
REMARK  231  A    between atoms: _571  and  _573
REMARK  232  A    between atoms: _573  and  _574
REMARK  233  A    between atoms: _576  and  _578
REMARK  234  A    between atoms: _578  and  _579
REMARK  235  A    between atoms: _578  and  _581
REMARK  236  A    between atoms: _581  and  _582
REMARK  237  A    between atoms: _584  and  _586
REMARK  238  A    between atoms: _586  and  _587
REMARK  239  A    between atoms: _586  and  _589
REMARK  240  A    between atoms: _589  and  _590
REMARK  241  A    between atoms: _590  and  _591
REMARK  242  A    between atoms: _593  and  _595
REMARK  243  A    between atoms: _595  and  _596
REMARK  244  A    between atoms: _595  and  _598
REMARK  245  A    between atoms: _598  and  _599
REMARK  246  A    between atoms: _599  and  _600
REMARK  247  A    between atoms: _603  and  _605
REMARK  248  A    between atoms: _605  and  _606
REMARK  249  A    between atoms: _605  and  _608
REMARK  250  A    between atoms: _608  and  _609
REMARK  251  A    between atoms: _609  and  _610
REMARK  252  A    between atoms: _610  and  _611
REMARK  253  A    between atoms: _620  and  _622
REMARK  254  A    between atoms: _622  and  _623
REMARK  255  A    between atoms: _622  and  _625
REMARK  256  A    between atoms: _625  and  _626
REMARK                            x       y       z     vdW  Elec       q    Type
REMARK                         _______ _______ _______ _____ _____    ______ ____
ROOT
ATOM      1  CA  ILE A   2      -7.093 -43.280  23.168  0.00  0.00    +0.148 C 
ENDROOT
BRANCH   1   3
ATOM      2  C   LYS A   1      -6.598 -42.976  20.812  0.00  0.00    +0.238 C 
ATOM      3  N   ILE A   2      -6.530 -42.508  22.064  0.00  0.00    -0.297 N 
ATOM      4  H   ILE A   2      -6.075 -41.592  22.251  0.00  0.00    +0.150 HD
ATOM      5  O   LYS A   1      -6.809 -44.157  20.552  0.00  0.00    -0.274 OA
BRANCH   2   6
ATOM      6  CA  LYS A   1      -6.462 -41.976  19.668  0.00  0.00    +0.145 C 
BRANCH   6   7
ATOM      7  N   LYS A   1      -5.421 -42.413  18.724  0.00  0.00    -0.238 NA
ATOM      8  H   LYS A   1      -5.419 -43.398  18.391  0.00  0.00    +0.142 HD
ENDBRANCH   6   7
BRANCH   6   9
ATOM      9  CB  LYS A   1      -7.827 -41.984  18.943  0.00  0.00    +0.026 C 
BRANCH   9  10
ATOM     10  CG  LYS A   1      -7.893 -41.139  17.687  0.00  0.00    -0.000 C 
BRANCH  10  11
ATOM     11  CD  LYS A   1      -9.093 -41.532  16.805  0.00  0.00    -0.024 C 
BRANCH  11  12
ATOM     12  CE  LYS A   1     -10.421 -41.505  17.576  0.00  0.00    -0.086 C 
BRANCH  12  13
ATOM     13  NZ  LYS A   1     -11.635 -41.633  16.681  0.00  0.00    +0.380 N 
ATOM     14  HZ1 LYS A   1     -12.497 -41.608  17.262  0.00  0.00    -0.089 HD
ATOM     15  HZ2 LYS A   1     -11.590 -42.535  16.165  0.00  0.00    -0.089 HD
ATOM     16  HZ3 LYS A   1     -11.649 -40.844  16.003  0.00  0.00    -0.089 HD
ENDBRANCH  12  13
ENDBRANCH  11  12
ENDBRANCH  10  11
ENDBRANCH   9  10
ENDBRANCH   6   9
ENDBRANCH   2   6
ENDBRANCH   1   3
BRANCH   1  17
ATOM     17  C   ILE A   2      -8.606 -43.090  23.060  0.00  0.00    +0.241 C 
ATOM     18  N   GLU A   3      -9.377 -44.164  23.211  0.00  0.00    -0.298 N 
ATOM     19  H   GLU A   3      -8.918 -45.086  23.355  0.00  0.00    +0.150 HD
ATOM     20  O   ILE A   2      -9.052 -41.954  22.851  0.00  0.00    -0.273 OA
BRANCH  18  21
ATOM     21  CA  GLU A   3     -10.846 -44.111  23.184  0.00  0.00    +0.137 C 
BRANCH  21  22
ATOM     22  C   GLU A   3     -11.399 -44.653  24.468  0.00  0.00    +0.227 C 
ATOM     23  O   GLU A   3     -11.005 -45.744  24.940  0.00  0.00    -0.286 OA
ENDBRANCH  21  22
BRANCH  21  24
ATOM     24  CB  GLU A   3     -11.394 -44.936  22.003  0.00  0.00    +0.039 C 
BRANCH  24  25
ATOM     25  CG  GLU A   3     -10.900 -44.423  20.670  0.00  0.00    +0.116 C 
BRANCH  25  26
ATOM     26  CD  GLU A   3     -11.471 -45.183  19.479  0.00  0.00    +0.365 C 
ATOM     27  OE2 GLU A   3     -12.469 -45.874  19.637  0.00  0.00    -0.246 OA
ATOM     28  OE1 GLU A   3     -10.905 -45.011  18.392  0.00  0.00    -0.246 OA
ENDBRANCH  25  26
ENDBRANCH  24  25
ENDBRANCH  21  24
ENDBRANCH  18  21
ENDBRANCH   1  17
BRANCH   1  29
ATOM     29  CB  ILE A   2      -6.625 -42.734  24.521  0.00  0.00    +0.027 C 
ATOM     30  CG2 ILE A   2      -7.387 -43.426  25.659  0.00  0.00    +0.002 C 
BRANCH  29  31
ATOM     31  CG1 ILE A   2      -5.087 -42.862  24.642  0.00  0.00    +0.002 C 
ATOM     32  CD1 ILE A   2      -4.492 -42.067  25.796  0.00  0.00    +0.000 C 
ENDBRANCH  29  31
ENDBRANCH   1  29
TORSDOF 16
REMARK  Name = ../refined-set-2016/4hwp/4hwp_pocket.pdb
REMARK  256 active torsions:
REMARK  status: ('A' for Active; 'I' for Inactive)
REMARK    1  A    between atoms: _1  and  _3
REMARK    2  A    between atoms: _3  and  _4
REMARK    3  A    between atoms: _6  and  _8
REMARK    4  A    between atoms: _8  and  _9
REMARK    5  A    between atoms: _8  and  _11
REMARK    6  A    between atoms: _11  and  _12
REMARK    7  A    between atoms: _17  and  _19
REMARK    8  A    between atoms: _19  and  _20
REMARK    9  A    between atoms: _19  and  _22
REMARK   10  A    between atoms: _22  and  _23
REMARK   11  A    between atoms: _28  and  _29
REMARK   12  A    between atoms: _31  and  _33
REMARK   13  A    between atoms: _33  and  _34
REMARK   14  A    between atoms: _38  and  _39
REMARK   15  A    between atoms: _44  and  _46
REMARK   16  A    between atoms: _46  and  _47
REMARK   17  A    between atoms: _46  and  _49
REMARK   18  A    between atoms: _49  and  _50
REMARK   19  A    between atoms: _50  and  _51
REMARK   20  A    between atoms: _53  and  _55
REMARK   21  A    between atoms: _55  and  _56
REMARK   22  A    between atoms: _55  and  _58
REMARK   23  A    between atoms: _58  and  _59
REMARK   24  A    between atoms: _64  and  _66
REMARK   25  A    between atoms: _66  and  _67
REMARK   26  A    between atoms: _66  and  _69
REMARK   27  A    between atoms: _69  and  _70
REMARK   28  A    between atoms: _70  and  ZN_632
REMARK   29  A    between atoms: _72  and  _73
REMARK   30  A    between atoms: _78  and  _80
REMARK   31  A    between atoms: _80  and  _81
REMARK   32  A    between atoms: _80  and  _83
REMARK   33  A    between atoms: _83  and  _84
REMARK   34  A    between atoms: _89  and  _91
REMARK   35  A    between atoms: _91  and  _92
REMARK   36  A    between atoms: _91  and  _94
REMARK   37  A    between atoms: _96  and  _98
REMARK   38  A    between atoms: _98  and  _99
REMARK   39  A    between atoms: _98  and  _101
REMARK   40  A    between atoms: _101  and  _102
REMARK   41  A    between atoms: _107  and  _109
REMARK   42  A    between atoms: _109  and  _110
REMARK   43  A    between atoms: _109  and  _112
REMARK   44  A    between atoms: _112  and  _113
REMARK   45  A    between atoms: _113  and  _114
REMARK   46  A    between atoms: _114  and  _115
REMARK   47  A    between atoms: _124  and  _126
REMARK   48  A    between atoms: _126  and  _127
REMARK   49  A    between atoms: _126  and  _129
REMARK   50  A    between atoms: _129  and  _130
REMARK   51  A    between atoms: _135  and  _137
REMARK   52  A    between atoms: _137  and  _138
REMARK   53  A    between atoms: _137  and  _140
REMARK   54  A    between atoms: _140  and  _141
REMARK   55  A    between atoms: _141  and  _142
REMARK   56  A    between atoms: _146  and  _147
REMARK   57  A    between atoms: _152  and  _154
REMARK   58  A    between atoms: _154  and  _155
REMARK   59  A    between atoms: _154  and  _157
REMARK   60  A    between atoms: _157  and  _158
REMARK   61  A    between atoms: _160  and  _162
REMARK   62  A    between atoms: _162  and  _163
REMARK   63  A    between atoms: _162  and  _165
REMARK   64  A    between atoms: _165  and  _166
REMARK   65  A    between atoms: _169  and  _171
REMARK   66  A    between atoms: _171  and  _172
REMARK   67  A    between atoms: _171  and  _174
REMARK   68  A    between atoms: _174  and  _175
REMARK   69  A    between atoms: _180  and  _182
REMARK   70  A    between atoms: _182  and  _183
REMARK   71  A    between atoms: _185  and  _187
REMARK   72  A    between atoms: _187  and  _188
REMARK   73  A    between atoms: _187  and  _190
REMARK   74  A    between atoms: _190  and  _191
REMARK   75  A    between atoms: _194  and  _196
REMARK   76  A    between atoms: _196  and  _197
REMARK   77  A    between atoms: _196  and  _199
REMARK   78  A    between atoms: _199  and  _200
REMARK   79  A    between atoms: _200  and  _201
REMARK   80  A    between atoms: _203  and  _205
REMARK   81  A    between atoms: _205  and  _206
REMARK   82  A    between atoms: _205  and  _208
REMARK   83  A    between atoms: _208  and  _209
REMARK   84  A    between atoms: _209  and  _210
REMARK   85  A    between atoms: _210  and  _211
REMARK   86  A    between atoms: _220  and  _222
REMARK   87  A    between atoms: _222  and  _223
REMARK   88  A    between atoms: _222  and  _225
REMARK   89  A    between atoms: _228  and  _230
REMARK   90  A    between atoms: _230  and  _231
REMARK   91  A    between atoms: _230  and  _233
REMARK   92  A    between atoms: _233  and  _234
REMARK   93  A    between atoms: _234  and  _235
REMARK   94  A    between atoms: _235  and  _236
REMARK   95  A    between atoms: _245  and  _247
REMARK   96  A    between atoms: _247  and  _248
REMARK   97  A    between atoms: _250  and  _252
REMARK   98  A    between atoms: _252  and  _253
REMARK   99  A    between atoms: _252  and  _255
REMARK  100  A    between atoms: _255  and  _256
REMARK  101  A    between atoms: _262  and  _264
REMARK  102  A    between atoms: _264  and  _265
REMARK  103  A    between atoms: _264  and  _267
REMARK  104  A    between atoms: _267  and  _268
REMARK  105  A    between atoms: _271  and  _273
REMARK  106  A    between atoms: _273  and  _274
REMARK  107  A    between atoms: _273  and  _276
REMARK  108  A    between atoms: _276  and  _277
REMARK  109  A    between atoms: _277  and  _278
REMARK  110  A    between atoms: _283  and  _285
REMARK  111  A    between atoms: _285  and  _286
REMARK  112  A    between atoms: _285  and  _288
REMARK  113  A    between atoms: _288  and  _289
REMARK  114  A    between atoms: _292  and  _294
REMARK  115  A    between atoms: _294  and  _295
REMARK  116  A    between atoms: _294  and  _297
REMARK  117  A    between atoms: _297  and  _298
REMARK  118  A    between atoms: _301  and  _303
REMARK  119  A    between atoms: _303  and  _304
REMARK  120  A    between atoms: _307  and  _309
REMARK  121  A    between atoms: _309  and  _310
REMARK  122  A    between atoms: _309  and  _312
REMARK  123  A    between atoms: _312  and  _313
REMARK  124  A    between atoms: _317  and  ZN_632
REMARK  125  A    between atoms: _318  and  _320
REMARK  126  A    between atoms: _320  and  _321
REMARK  127  A    between atoms: _320  and  _323
REMARK  128  A    between atoms: _323  and  _324
REMARK  129  A    between atoms: _327  and  _329
REMARK  130  A    between atoms: _329  and  _330
REMARK  131  A    between atoms: _329  and  _332
REMARK  132  A    between atoms: _332  and  _333
REMARK  133  A    between atoms: _335  and  _337
REMARK  134  A    between atoms: _337  and  _338
REMARK  135  A    between atoms: _337  and  _340
REMARK  136  A    between atoms: _340  and  _341
REMARK  137  A    between atoms: _341  and  _342
REMARK  138  A    between atoms: _345  and  _347
REMARK  139  A    between atoms: _347  and  _348
REMARK  140  A    between atoms: _350  and  _352
REMARK  141  A    between atoms: _352  and  _353
REMARK  142  A    between atoms: _356  and  _358
REMARK  143  A    between atoms: _358  and  _359
REMARK  144  A    between atoms: _358  and  _361
REMARK  145  A    between atoms: _361  and  _362
REMARK  146  A    between atoms: _368  and  _370
REMARK  147  A    between atoms: _370  and  _371
REMARK  148  A    between atoms: _370  and  _373
REMARK  149  A    between atoms: _373  and  _374
REMARK  150  A    between atoms: _379  and  _380
REMARK  151  A    between atoms: _382  and  _384
REMARK  152  A    between atoms: _384  and  _385
REMARK  153  A    between atoms: _384  and  _387
REMARK  154  A    between atoms: _387  and  _388
REMARK  155  A    between atoms: _388  and  _389
REMARK  156  A    between atoms: _389  and  _390
REMARK  157  A    between atoms: _390  and  _391
REMARK  158  A    between atoms: _395  and  _397
REMARK  159  A    between atoms: _397  and  _398
REMARK  160  A    between atoms: _397  and  _400
REMARK  161  A    between atoms: _400  and  _401
REMARK  162  A    between atoms: _404  and  _406
REMARK  163  A    between atoms: _406  and  _407
REMARK  164  A    between atoms: _406  and  _409
REMARK  165  A    between atoms: _409  and  _410
REMARK  166  A    between atoms: _410  and  _411
REMARK  167  A    between atoms: _414  and  _416
REMARK  168  A    between atoms: _416  and  _417
REMARK  169  A    between atoms: _416  and  _419
REMARK  170  A    between atoms: _419  and  _420
REMARK  171  A    between atoms: _430  and  _432
REMARK  172  A    between atoms: _432  and  _433
REMARK  173  A    between atoms: _432  and  _435
REMARK  174  A    between atoms: _435  and  _436
REMARK  175  A    between atoms: _436  and  _437
REMARK  176  A    between atoms: _442  and  _444
REMARK  177  A    between atoms: _444  and  _445
REMARK  178  A    between atoms: _444  and  _447
REMARK  179  A    between atoms: _449  and  _451
REMARK  180  A    between atoms: _451  and  _452
REMARK  181  A    between atoms: _454  and  _456
REMARK  182  A    between atoms: _456  and  _457
REMARK  183  A    between atoms: _456  and  _459
REMARK  184  A    between atoms: _459  and  _460
REMARK  185  A    between atoms: _463  and  _465
REMARK  186  A    between atoms: _465  and  _466
REMARK  187  A    between atoms: _465  and  _468
REMARK  188  A    between atoms: _471  and  _473
REMARK  189  A    between atoms: _473  and  _474
REMARK  190  A    between atoms: _473  and  _476
REMARK  191  A    between atoms: _476  and  _477
REMARK  192  A    between atoms: _477  and  _478
REMARK  193  A    between atoms: _483  and  _485
REMARK  194  A    between atoms: _485  and  _486
REMARK  195  A    between atoms: _485  and  _488
REMARK  196  A    between atoms: _488  and  _489
REMARK  197  A    between atoms: _492  and  _494
REMARK  198  A    between atoms: _494  and  _495
REMARK  199  A    between atoms: _494  and  _497
REMARK  200  A    between atoms: _497  and  _498
REMARK  201  A    between atoms: _501  and  _503
REMARK  202  A    between atoms: _503  and  _504
REMARK  203  A    between atoms: _503  and  _506
REMARK  204  A    between atoms: _506  and  _507
REMARK  205  A    between atoms: _507  and  _508
REMARK  206  A    between atoms: _510  and  _512
REMARK  207  A    between atoms: _512  and  _513
REMARK  208  A    between atoms: _512  and  _515
REMARK  209  A    between atoms: _515  and  _516
REMARK  210  A    between atoms: _519  and  _521
REMARK  211  A    between atoms: _521  and  _522
REMARK  212  A    between atoms: _521  and  _524
REMARK  213  A    between atoms: _524  and  _525
REMARK  214  A    between atoms: _526  and  ZN_632
REMARK  215  A    between atoms: _530  and  _532
REMARK  216  A    between atoms: _532  and  _533
REMARK  217  A    between atoms: _532  and  _535
REMARK  218  A    between atoms: _535  and  _536
REMARK  219  A    between atoms: _536  and  _537
REMARK  220  A    between atoms: _537  and  _538
REMARK  221  A    between atoms: _547  and  _549
REMARK  222  A    between atoms: _549  and  _550
REMARK  223  A    between atoms: _553  and  _555
REMARK  224  A    between atoms: _555  and  _556
REMARK  225  A    between atoms: _555  and  _558
REMARK  226  A    between atoms: _558  and  _559
REMARK  227  A    between atoms: _562  and  _564
REMARK  228  A    between atoms: _564  and  _565
REMARK  229  A    between atoms: _564  and  _567
REMARK  230  A    between atoms: _567  and  _568
REMARK  231  A    between atoms: _571  and  _573
REMARK  232  A    between atoms: _573  and  _574
REMARK  233  A    between atoms: _576  and  _578
REMARK  234  A    between atoms: _578  and  _579
REMARK  235  A    between atoms: _578  and  _581
REMARK  236  A    between atoms: _581  and  _582
REMARK  237  A    between atoms: _584  and  _586
REMARK  238  A    between atoms: _586  and  _587
REMARK  239  A    between atoms: _586  and  _589
REMARK  240  A    between atoms: _589  and  _590
REMARK  241  A    between atoms: _590  and  _591
REMARK  242  A    between atoms: _593  and  _595
REMARK  243  A    between atoms: _595  and  _596
REMARK  244  A    between atoms: _595  and  _598
REMARK  245  A    between atoms: _598  and  _599
REMARK  246  A    between atoms: _599  and  _600
REMARK  247  A    between atoms: _603  and  _605
REMARK  248  A    between atoms: _605  and  _606
REMARK  249  A    between atoms: _605  and  _608
REMARK  250  A    between atoms: _608  and  _609
REMARK  251  A    between atoms: _609  and  _610
REMARK  252  A    between atoms: _610  and  _611
REMARK  253  A    between atoms: _620  and  _622
REMARK  254  A    between atoms: _622  and  _623
REMARK  255  A    between atoms: _622  and  _625
REMARK  256  A    between atoms: _625  and  _626
REMARK                            x       y       z     vdW  Elec       q    Type
REMARK                         _______ _______ _______ _____ _____    ______ ____
ROOT
ATOM      1  C   CYS A   3     -15.892 -40.193  24.389  0.00  0.00    +0.242 C 
ATOM      2  N   GLY A   4     -15.204 -40.384  25.502  0.00  0.00    -0.295 N 
ATOM      3  H   GLY A   4     -15.560 -41.035  26.231  0.00  0.00    +0.150 HD
ATOM      4  O   CYS A   3     -15.514 -39.426  23.502  0.00  0.00    -0.273 OA
ENDROOT
BRANCH   1   5
ATOM      5  CA  CYS A   3     -17.175 -41.002  24.188  0.00  0.00    +0.160 C 
BRANCH   5   7
ATOM      6  C   GLN A   2     -17.261 -42.480  22.301  0.00  0.00    +0.241 C 
ATOM      7  N   CYS A   3     -16.810 -42.231  23.521  0.00  0.00    -0.296 N 
ATOM      8  H   CYS A   3     -16.194 -42.919  23.999  0.00  0.00    +0.150 HD
ATOM      9  O   GLN A   2     -18.054 -41.732  21.720  0.00  0.00    -0.273 OA
BRANCH   6  10
ATOM     10  CA  GLN A   2     -16.774 -43.762  21.619  0.00  0.00    +0.149 C 
BRANCH  10  13
ATOM     11  C   TRP A   1     -18.686 -45.153  22.181  0.00  0.00    +0.239 C 
ATOM     12  O   TRP A   1     -18.441 -45.058  23.375  0.00  0.00    -0.274 OA
ATOM     13  N   GLN A   2     -17.902 -44.619  21.238  0.00  0.00    -0.297 N 
ATOM     14  H   GLN A   2     -18.092 -44.812  20.234  0.00  0.00    +0.150 HD
BRANCH  11  15
ATOM     15  CA  TRP A   1     -19.918 -45.873  21.728  0.00  0.00    +0.149 C 
BRANCH  15  16
ATOM     16  N   TRP A   1     -19.975 -47.239  22.298  0.00  0.00    -0.238 NA
ATOM     17  H   TRP A   1     -20.080 -47.342  23.327  0.00  0.00    +0.142 HD
ENDBRANCH  15  16
BRANCH  15  18
ATOM     18  CB  TRP A   1     -21.158 -45.039  22.158  0.00  0.00    +0.054 C 
BRANCH  18  19
ATOM     19  CG  TRP A   1     -22.416 -45.582  21.550  0.00  0.00    -0.002 A 
ATOM     20  CD1 TRP A   1     -23.328 -46.428  22.138  0.00  0.00    +0.068 A 
ATOM     21  NE1 TRP A   1     -24.359 -46.710  21.271  0.00  0.00    -0.352 N 
ATOM     22  HE1 TRP A   1     -25.190 -47.289  21.506  0.00  0.00    +0.166 HD
ATOM     23  CE2 TRP A   1     -24.138 -46.124  20.062  0.00  0.00    +0.056 A 
ATOM     24  CZ2 TRP A   1     -24.896 -46.143  18.884  0.00  0.00    +0.017 A 
ATOM     25  CH2 TRP A   1     -24.387 -45.425  17.777  0.00  0.00    +0.001 A 
ATOM     26  CZ3 TRP A   1     -23.186 -44.663  17.877  0.00  0.00    +0.000 A 
ATOM     27  CE3 TRP A   1     -22.421 -44.648  19.058  0.00  0.00    +0.001 A 
ATOM     28  CD2 TRP A   1     -22.898 -45.371  20.178  0.00  0.00    +0.013 A 
ENDBRANCH  18  19
ENDBRANCH  15  18
ENDBRANCH  11  15
ENDBRANCH  10  13
BRANCH  10  29
ATOM     29  CB  GLN A   2     -15.937 -43.364  20.390  0.00  0.00    +0.039 C 
BRANCH  29  30
ATOM     30  CG  GLN A   2     -14.764 -42.464  20.816  0.00  0.00    +0.087 C 
BRANCH  30  31
ATOM     31  CD  GLN A   2     -14.120 -41.794  19.629  0.00  0.00    +0.219 C 
ATOM     32  NE2 GLN A   2     -14.404 -40.485  19.432  0.00  0.00    -0.329 N 
ATOM     33 HE21 GLN A   2     -15.003 -39.975  20.112  0.00  0.00    +0.145 HD
ATOM     34 HE22 GLN A   2     -14.023 -39.990  18.600  0.00  0.00    +0.145 HD
ATOM     35  OE1 GLN A   2     -13.421 -42.445  18.862  0.00  0.00    -0.275 OA
ENDBRANCH  30  31
ENDBRANCH  29  30
ENDBRANCH  10  29
ENDBRANCH   6  10
ENDBRANCH   5   7
BRANCH   5  36
ATOM     36  CB  CYS A   3     -17.946 -41.280  25.488  0.00  0.00    +0.098 C 
ATOM     37  SG  CYS A   3     -19.583 -41.964  25.163  0.00  0.00    -0.080 S 
ENDBRANCH   5  36
ENDBRANCH   1   5
BRANCH   2  38
ATOM     38  CA  GLY A   4     -13.927 -39.668  25.706  0.00  0.00    +0.176 C 
BRANCH  38  39
ATOM     39  C   GLY A   4     -12.880 -40.097  24.703  0.00  0.00    +0.243 C 
ATOM     40  N   THR A   5     -12.032 -39.151  24.308  0.00  0.00    -0.295 N 
ATOM     41  H   THR A   5     -12.158 -38.170  24.628  0.00  0.00    +0.150 HD
ATOM     42  O   GLY A   4     -12.846 -41.259  24.255  0.00  0.00    -0.273 OA
BRANCH  40  43
ATOM     43  CA  THR A   5     -10.915 -39.499  23.416  0.00  0.00    +0.176 C 
BRANCH  43  44
ATOM     44  C   THR A   5      -9.743 -38.516  23.640  0.00  0.00    +0.243 C 
ATOM     45  O   THR A   5      -9.977 -37.311  23.886  0.00  0.00    -0.273 OA
ATOM     46  N   VAL A   6      -8.506 -39.028  23.591  0.00  0.00    -0.297 N 
ATOM     47  H   VAL A   6      -8.392 -40.043  23.396  0.00  0.00    +0.150 HD
BRANCH  46  48
ATOM     48  CA  VAL A   6      -7.307 -38.213  23.802  0.00  0.00    +0.149 C 
BRANCH  48  49
ATOM     49  C   VAL A   6      -6.364 -38.617  22.671  0.00  0.00    +0.241 C 
ATOM     50  O   VAL A   6      -6.142 -39.822  22.441  0.00  0.00    -0.273 OA
ATOM     51  N   GLN A   7      -5.866 -37.638  21.925  0.00  0.00    -0.298 N 
ATOM     52  H   GLN A   7      -5.972 -36.655  22.247  0.00  0.00    +0.150 HD
BRANCH  51  53
ATOM     53  CA  GLN A   7      -5.169 -37.902  20.657  0.00  0.00    +0.137 C 
BRANCH  53  54
ATOM     54  C   GLN A   7      -3.912 -37.048  20.607  0.00  0.00    +0.227 C 
ATOM     55  O   GLN A   7      -3.896 -35.930  21.139  0.00  0.00    -0.286 OA
ENDBRANCH  53  54
BRANCH  53  56
ATOM     56  CB  GLN A   7      -6.075 -37.614  19.434  0.00  0.00    +0.037 C 
BRANCH  56  57
ATOM     57  CG  GLN A   7      -7.524 -38.015  19.699  0.00  0.00    +0.087 C 
BRANCH  57  58
ATOM     58  CD  GLN A   7      -8.512 -37.539  18.650  0.00  0.00    +0.219 C 
ATOM     59  OE1 GLN A   7      -9.700 -37.999  18.626  0.00  0.00    -0.275 OA
ATOM     60  NE2 GLN A   7      -8.068 -36.658  17.776  0.00  0.00    -0.329 N 
ATOM     61 HE21 GLN A   7      -7.089 -36.312  17.837  0.00  0.00    +0.145 HD
ATOM     62 HE22 GLN A   7      -8.697 -36.308  17.025  0.00  0.00    +0.145 HD
ENDBRANCH  57  58
ENDBRANCH  56  57
ENDBRANCH  53  56
ENDBRANCH  51  53
ENDBRANCH  48  49
BRANCH  48  63
ATOM     63  CB  VAL A   6      -6.639 -38.510  25.178  0.00  0.00    +0.027 C 
ATOM     64  CG2 VAL A   6      -7.584 -38.260  26.340  0.00  0.00    +0.002 C 
ATOM     65  CG1 VAL A   6      -5.372 -37.680  25.358  0.00  0.00    +0.002 C 
ENDBRANCH  48  63
ENDBRANCH  46  48
ENDBRANCH  43  44
BRANCH  43  66
ATOM     66  CB  THR A   5     -11.337 -39.558  21.907  0.00  0.00    +0.137 C 
ATOM     67  CG2 THR A   5     -11.933 -38.203  21.393  0.00  0.00    +0.034 C 
BRANCH  66  68
ATOM     68  OG1 THR A   5     -10.204 -39.947  21.123  0.00  0.00    -0.382 OA
ATOM     69  HG1 THR A   5      -9.890 -40.838  21.418  0.00  0.00    +0.210 HD
ENDBRANCH  66  68
ENDBRANCH  43  66
ENDBRANCH  40  43
ENDBRANCH  38  39
ENDBRANCH   2  38
TORSDOF 26
REMARK  Name = ../refined-set-2016/4hwp/4hwp_pocket.pdb
REMARK  256 active torsions:
REMARK  status: ('A' for Active; 'I' for Inactive)
REMARK    1  A    between atoms: _1  and  _3
REMARK    2  A    between atoms: _3  and  _4
REMARK    3  A    between atoms: _6  and  _8
REMARK    4  A    between atoms: _8  and  _9
REMARK    5  A    between atoms: _8  and  _11
REMARK    6  A    between atoms: _11  and  _12
REMARK    7  A    between atoms: _17  and  _19
REMARK    8  A    between atoms: _19  and  _20
REMARK    9  A    between atoms: _19  and  _22
REMARK   10  A    between atoms: _22  and  _23
REMARK   11  A    between atoms: _28  and  _29
REMARK   12  A    between atoms: _31  and  _33
REMARK   13  A    between atoms: _33  and  _34
REMARK   14  A    between atoms: _38  and  _39
REMARK   15  A    between atoms: _44  and  _46
REMARK   16  A    between atoms: _46  and  _47
REMARK   17  A    between atoms: _46  and  _49
REMARK   18  A    between atoms: _49  and  _50
REMARK   19  A    between atoms: _50  and  _51
REMARK   20  A    between atoms: _53  and  _55
REMARK   21  A    between atoms: _55  and  _56
REMARK   22  A    between atoms: _55  and  _58
REMARK   23  A    between atoms: _58  and  _59
REMARK   24  A    between atoms: _64  and  _66
REMARK   25  A    between atoms: _66  and  _67
REMARK   26  A    between atoms: _66  and  _69
REMARK   27  A    between atoms: _69  and  _70
REMARK   28  A    between atoms: _70  and  ZN_632
REMARK   29  A    between atoms: _72  and  _73
REMARK   30  A    between atoms: _78  and  _80
REMARK   31  A    between atoms: _80  and  _81
REMARK   32  A    between atoms: _80  and  _83
REMARK   33  A    between atoms: _83  and  _84
REMARK   34  A    between atoms: _89  and  _91
REMARK   35  A    between atoms: _91  and  _92
REMARK   36  A    between atoms: _91  and  _94
REMARK   37  A    between atoms: _96  and  _98
REMARK   38  A    between atoms: _98  and  _99
REMARK   39  A    between atoms: _98  and  _101
REMARK   40  A    between atoms: _101  and  _102
REMARK   41  A    between atoms: _107  and  _109
REMARK   42  A    between atoms: _109  and  _110
REMARK   43  A    between atoms: _109  and  _112
REMARK   44  A    between atoms: _112  and  _113
REMARK   45  A    between atoms: _113  and  _114
REMARK   46  A    between atoms: _114  and  _115
REMARK   47  A    between atoms: _124  and  _126
REMARK   48  A    between atoms: _126  and  _127
REMARK   49  A    between atoms: _126  and  _129
REMARK   50  A    between atoms: _129  and  _130
REMARK   51  A    between atoms: _135  and  _137
REMARK   52  A    between atoms: _137  and  _138
REMARK   53  A    between atoms: _137  and  _140
REMARK   54  A    between atoms: _140  and  _141
REMARK   55  A    between atoms: _141  and  _142
REMARK   56  A    between atoms: _146  and  _147
REMARK   57  A    between atoms: _152  and  _154
REMARK   58  A    between atoms: _154  and  _155
REMARK   59  A    between atoms: _154  and  _157
REMARK   60  A    between atoms: _157  and  _158
REMARK   61  A    between atoms: _160  and  _162
REMARK   62  A    between atoms: _162  and  _163
REMARK   63  A    between atoms: _162  and  _165
REMARK   64  A    between atoms: _165  and  _166
REMARK   65  A    between atoms: _169  and  _171
REMARK   66  A    between atoms: _171  and  _172
REMARK   67  A    between atoms: _171  and  _174
REMARK   68  A    between atoms: _174  and  _175
REMARK   69  A    between atoms: _180  and  _182
REMARK   70  A    between atoms: _182  and  _183
REMARK   71  A    between atoms: _185  and  _187
REMARK   72  A    between atoms: _187  and  _188
REMARK   73  A    between atoms: _187  and  _190
REMARK   74  A    between atoms: _190  and  _191
REMARK   75  A    between atoms: _194  and  _196
REMARK   76  A    between atoms: _196  and  _197
REMARK   77  A    between atoms: _196  and  _199
REMARK   78  A    between atoms: _199  and  _200
REMARK   79  A    between atoms: _200  and  _201
REMARK   80  A    between atoms: _203  and  _205
REMARK   81  A    between atoms: _205  and  _206
REMARK   82  A    between atoms: _205  and  _208
REMARK   83  A    between atoms: _208  and  _209
REMARK   84  A    between atoms: _209  and  _210
REMARK   85  A    between atoms: _210  and  _211
REMARK   86  A    between atoms: _220  and  _222
REMARK   87  A    between atoms: _222  and  _223
REMARK   88  A    between atoms: _222  and  _225
REMARK   89  A    between atoms: _228  and  _230
REMARK   90  A    between atoms: _230  and  _231
REMARK   91  A    between atoms: _230  and  _233
REMARK   92  A    between atoms: _233  and  _234
REMARK   93  A    between atoms: _234  and  _235
REMARK   94  A    between atoms: _235  and  _236
REMARK   95  A    between atoms: _245  and  _247
REMARK   96  A    between atoms: _247  and  _248
REMARK   97  A    between atoms: _250  and  _252
REMARK   98  A    between atoms: _252  and  _253
REMARK   99  A    between atoms: _252  and  _255
REMARK  100  A    between atoms: _255  and  _256
REMARK  101  A    between atoms: _262  and  _264
REMARK  102  A    between atoms: _264  and  _265
REMARK  103  A    between atoms: _264  and  _267
REMARK  104  A    between atoms: _267  and  _268
REMARK  105  A    between atoms: _271  and  _273
REMARK  106  A    between atoms: _273  and  _274
REMARK  107  A    between atoms: _273  and  _276
REMARK  108  A    between atoms: _276  and  _277
REMARK  109  A    between atoms: _277  and  _278
REMARK  110  A    between atoms: _283  and  _285
REMARK  111  A    between atoms: _285  and  _286
REMARK  112  A    between atoms: _285  and  _288
REMARK  113  A    between atoms: _288  and  _289
REMARK  114  A    between atoms: _292  and  _294
REMARK  115  A    between atoms: _294  and  _295
REMARK  116  A    between atoms: _294  and  _297
REMARK  117  A    between atoms: _297  and  _298
REMARK  118  A    between atoms: _301  and  _303
REMARK  119  A    between atoms: _303  and  _304
REMARK  120  A    between atoms: _307  and  _309
REMARK  121  A    between atoms: _309  and  _310
REMARK  122  A    between atoms: _309  and  _312
REMARK  123  A    between atoms: _312  and  _313
REMARK  124  A    between atoms: _317  and  ZN_632
REMARK  125  A    between atoms: _318  and  _320
REMARK  126  A    between atoms: _320  and  _321
REMARK  127  A    between atoms: _320  and  _323
REMARK  128  A    between atoms: _323  and  _324
REMARK  129  A    between atoms: _327  and  _329
REMARK  130  A    between atoms: _329  and  _330
REMARK  131  A    between atoms: _329  and  _332
REMARK  132  A    between atoms: _332  and  _333
REMARK  133  A    between atoms: _335  and  _337
REMARK  134  A    between atoms: _337  and  _338
REMARK  135  A    between atoms: _337  and  _340
REMARK  136  A    between atoms: _340  and  _341
REMARK  137  A    between atoms: _341  and  _342
REMARK  138  A    between atoms: _345  and  _347
REMARK  139  A    between atoms: _347  and  _348
REMARK  140  A    between atoms: _350  and  _352
REMARK  141  A    between atoms: _352  and  _353
REMARK  142  A    between atoms: _356  and  _358
REMARK  143  A    between atoms: _358  and  _359
REMARK  144  A    between atoms: _358  and  _361
REMARK  145  A    between atoms: _361  and  _362
REMARK  146  A    between atoms: _368  and  _370
REMARK  147  A    between atoms: _370  and  _371
REMARK  148  A    between atoms: _370  and  _373
REMARK  149  A    between atoms: _373  and  _374
REMARK  150  A    between atoms: _379  and  _380
REMARK  151  A    between atoms: _382  and  _384
REMARK  152  A    between atoms: _384  and  _385
REMARK  153  A    between atoms: _384  and  _387
REMARK  154  A    between atoms: _387  and  _388
REMARK  155  A    between atoms: _388  and  _389
REMARK  156  A    between atoms: _389  and  _390
REMARK  157  A    between atoms: _390  and  _391
REMARK  158  A    between atoms: _395  and  _397
REMARK  159  A    between atoms: _397  and  _398
REMARK  160  A    between atoms: _397  and  _400
REMARK  161  A    between atoms: _400  and  _401
REMARK  162  A    between atoms: _404  and  _406
REMARK  163  A    between atoms: _406  and  _407
REMARK  164  A    between atoms: _406  and  _409
REMARK  165  A    between atoms: _409  and  _410
REMARK  166  A    between atoms: _410  and  _411
REMARK  167  A    between atoms: _414  and  _416
REMARK  168  A    between atoms: _416  and  _417
REMARK  169  A    between atoms: _416  and  _419
REMARK  170  A    between atoms: _419  and  _420
REMARK  171  A    between atoms: _430  and  _432
REMARK  172  A    between atoms: _432  and  _433
REMARK  173  A    between atoms: _432  and  _435
REMARK  174  A    between atoms: _435  and  _436
REMARK  175  A    between atoms: _436  and  _437
REMARK  176  A    between atoms: _442  and  _444
REMARK  177  A    between atoms: _444  and  _445
REMARK  178  A    between atoms: _444  and  _447
REMARK  179  A    between atoms: _449  and  _451
REMARK  180  A    between atoms: _451  and  _452
REMARK  181  A    between atoms: _454  and  _456
REMARK  182  A    between atoms: _456  and  _457
REMARK  183  A    between atoms: _456  and  _459
REMARK  184  A    between atoms: _459  and  _460
REMARK  185  A    between atoms: _463  and  _465
REMARK  186  A    between atoms: _465  and  _466
REMARK  187  A    between atoms: _465  and  _468
REMARK  188  A    between atoms: _471  and  _473
REMARK  189  A    between atoms: _473  and  _474
REMARK  190  A    between atoms: _473  and  _476
REMARK  191  A    between atoms: _476  and  _477
REMARK  192  A    between atoms: _477  and  _478
REMARK  193  A    between atoms: _483  and  _485
REMARK  194  A    between atoms: _485  and  _486
REMARK  195  A    between atoms: _485  and  _488
REMARK  196  A    between atoms: _488  and  _489
REMARK  197  A    between atoms: _492  and  _494
REMARK  198  A    between atoms: _494  and  _495
REMARK  199  A    between atoms: _494  and  _497
REMARK  200  A    between atoms: _497  and  _498
REMARK  201  A    between atoms: _501  and  _503
REMARK  202  A    between atoms: _503  and  _504
REMARK  203  A    between atoms: _503  and  _506
REMARK  204  A    between atoms: _506  and  _507
REMARK  205  A    between atoms: _507  and  _508
REMARK  206  A    between atoms: _510  and  _512
REMARK  207  A    between atoms: _512  and  _513
REMARK  208  A    between atoms: _512  and  _515
REMARK  209  A    between atoms: _515  and  _516
REMARK  210  A    between atoms: _519  and  _521
REMARK  211  A    between atoms: _521  and  _522
REMARK  212  A    between atoms: _521  and  _524
REMARK  213  A    between atoms: _524  and  _525
REMARK  214  A    between atoms: _526  and  ZN_632
REMARK  215  A    between atoms: _530  and  _532
REMARK  216  A    between atoms: _532  and  _533
REMARK  217  A    between atoms: _532  and  _535
REMARK  218  A    between atoms: _535  and  _536
REMARK  219  A    between atoms: _536  and  _537
REMARK  220  A    between atoms: _537  and  _538
REMARK  221  A    between atoms: _547  and  _549
REMARK  222  A    between atoms: _549  and  _550
REMARK  223  A    between atoms: _553  and  _555
REMARK  224  A    between atoms: _555  and  _556
REMARK  225  A    between atoms: _555  and  _558
REMARK  226  A    between atoms: _558  and  _559
REMARK  227  A    between atoms: _562  and  _564
REMARK  228  A    between atoms: _564  and  _565
REMARK  229  A    between atoms: _564  and  _567
REMARK  230  A    between atoms: _567  and  _568
REMARK  231  A    between atoms: _571  and  _573
REMARK  232  A    between atoms: _573  and  _574
REMARK  233  A    between atoms: _576  and  _578
REMARK  234  A    between atoms: _578  and  _579
REMARK  235  A    between atoms: _578  and  _581
REMARK  236  A    between atoms: _581  and  _582
REMARK  237  A    between atoms: _584  and  _586
REMARK  238  A    between atoms: _586  and  _587
REMARK  239  A    between atoms: _586  and  _589
REMARK  240  A    between atoms: _589  and  _590
REMARK  241  A    between atoms: _590  and  _591
REMARK  242  A    between atoms: _593  and  _595
REMARK  243  A    between atoms: _595  and  _596
REMARK  244  A    between atoms: _595  and  _598
REMARK  245  A    between atoms: _598  and  _599
REMARK  246  A    between atoms: _599  and  _600
REMARK  247  A    between atoms: _603  and  _605
REMARK  248  A    between atoms: _605  and  _606
REMARK  249  A    between atoms: _605  and  _608
REMARK  250  A    between atoms: _608  and  _609
REMARK  251  A    between atoms: _609  and  _610
REMARK  252  A    between atoms: _610  and  _611
REMARK  253  A    between atoms: _620  and  _622
REMARK  254  A    between atoms: _622  and  _623
REMARK  255  A    between atoms: _622  and  _625
REMARK  256  A    between atoms: _625  and  _626
REMARK                            x       y       z     vdW  Elec       q    Type
REMARK                         _______ _______ _______ _____ _____    ______ ____
ROOT
ATOM      1  CA  ASP A   1      -0.875 -34.832  16.798  0.00  0.00    +0.144 C 
ENDROOT
BRANCH   1   2
ATOM      2  N   ASP A   1      -0.925 -35.320  18.182  0.00  0.00    -0.239 NA
ATOM      3  H   ASP A   1      -0.725 -34.660  18.960  0.00  0.00    +0.142 HD
ENDBRANCH   1   2
BRANCH   1   4
ATOM      4  C   ASP A   1       0.427 -34.049  16.584  0.00  0.00    +0.225 C 
ATOM      5  O   ASP A   1       0.608 -32.951  17.133  0.00  0.00    -0.287 OA
ENDBRANCH   1   4
BRANCH   1   6
ATOM      6  CB  ASP A   1      -2.087 -33.926  16.571  0.00  0.00    +0.139 C 
BRANCH   6   7
ATOM      7  CG  ASP A   1      -2.155 -33.291  15.172  0.00  0.00    +0.367 C 
ATOM      8  OD2 ASP A   1      -3.182 -32.596  14.947  0.00  0.00    -0.246 OA
ATOM      9  OD1 ASP A   1      -1.267 -33.469  14.290  0.00  0.00    -0.246 OA
ENDBRANCH   6   7
ENDBRANCH   1   6
TORSDOF 4
REMARK  Name = ../refined-set-2016/4hwp/4hwp_pocket.pdb
REMARK  256 active torsions:
REMARK  status: ('A' for Active; 'I' for Inactive)
REMARK    1  A    between atoms: _1  and  _3
REMARK    2  A    between atoms: _3  and  _4
REMARK    3  A    between atoms: _6  and  _8
REMARK    4  A    between atoms: _8  and  _9
REMARK    5  A    between atoms: _8  and  _11
REMARK    6  A    between atoms: _11  and  _12
REMARK    7  A    between atoms: _17  and  _19
REMARK    8  A    between atoms: _19  and  _20
REMARK    9  A    between atoms: _19  and  _22
REMARK   10  A    between atoms: _22  and  _23
REMARK   11  A    between atoms: _28  and  _29
REMARK   12  A    between atoms: _31  and  _33
REMARK   13  A    between atoms: _33  and  _34
REMARK   14  A    between atoms: _38  and  _39
REMARK   15  A    between atoms: _44  and  _46
REMARK   16  A    between atoms: _46  and  _47
REMARK   17  A    between atoms: _46  and  _49
REMARK   18  A    between atoms: _49  and  _50
REMARK   19  A    between atoms: _50  and  _51
REMARK   20  A    between atoms: _53  and  _55
REMARK   21  A    between atoms: _55  and  _56
REMARK   22  A    between atoms: _55  and  _58
REMARK   23  A    between atoms: _58  and  _59
REMARK   24  A    between atoms: _64  and  _66
REMARK   25  A    between atoms: _66  and  _67
REMARK   26  A    between atoms: _66  and  _69
REMARK   27  A    between atoms: _69  and  _70
REMARK   28  A    between atoms: _70  and  ZN_632
REMARK   29  A    between atoms: _72  and  _73
REMARK   30  A    between atoms: _78  and  _80
REMARK   31  A    between atoms: _80  and  _81
REMARK   32  A    between atoms: _80  and  _83
REMARK   33  A    between atoms: _83  and  _84
REMARK   34  A    between atoms: _89  and  _91
REMARK   35  A    between atoms: _91  and  _92
REMARK   36  A    between atoms: _91  and  _94
REMARK   37  A    between atoms: _96  and  _98
REMARK   38  A    between atoms: _98  and  _99
REMARK   39  A    between atoms: _98  and  _101
REMARK   40  A    between atoms: _101  and  _102
REMARK   41  A    between atoms: _107  and  _109
REMARK   42  A    between atoms: _109  and  _110
REMARK   43  A    between atoms: _109  and  _112
REMARK   44  A    between atoms: _112  and  _113
REMARK   45  A    between atoms: _113  and  _114
REMARK   46  A    between atoms: _114  and  _115
REMARK   47  A    between atoms: _124  and  _126
REMARK   48  A    between atoms: _126  and  _127
REMARK   49  A    between atoms: _126  and  _129
REMARK   50  A    between atoms: _129  and  _130
REMARK   51  A    between atoms: _135  and  _137
REMARK   52  A    between atoms: _137  and  _138
REMARK   53  A    between atoms: _137  and  _140
REMARK   54  A    between atoms: _140  and  _141
REMARK   55  A    between atoms: _141  and  _142
REMARK   56  A    between atoms: _146  and  _147
REMARK   57  A    between atoms: _152  and  _154
REMARK   58  A    between atoms: _154  and  _155
REMARK   59  A    between atoms: _154  and  _157
REMARK   60  A    between atoms: _157  and  _158
REMARK   61  A    between atoms: _160  and  _162
REMARK   62  A    between atoms: _162  and  _163
REMARK   63  A    between atoms: _162  and  _165
REMARK   64  A    between atoms: _165  and  _166
REMARK   65  A    between atoms: _169  and  _171
REMARK   66  A    between atoms: _171  and  _172
REMARK   67  A    between atoms: _171  and  _174
REMARK   68  A    between atoms: _174  and  _175
REMARK   69  A    between atoms: _180  and  _182
REMARK   70  A    between atoms: _182  and  _183
REMARK   71  A    between atoms: _185  and  _187
REMARK   72  A    between atoms: _187  and  _188
REMARK   73  A    between atoms: _187  and  _190
REMARK   74  A    between atoms: _190  and  _191
REMARK   75  A    between atoms: _194  and  _196
REMARK   76  A    between atoms: _196  and  _197
REMARK   77  A    between atoms: _196  and  _199
REMARK   78  A    between atoms: _199  and  _200
REMARK   79  A    between atoms: _200  and  _201
REMARK   80  A    between atoms: _203  and  _205
REMARK   81  A    between atoms: _205  and  _206
REMARK   82  A    between atoms: _205  and  _208
REMARK   83  A    between atoms: _208  and  _209
REMARK   84  A    between atoms: _209  and  _210
REMARK   85  A    between atoms: _210  and  _211
REMARK   86  A    between atoms: _220  and  _222
REMARK   87  A    between atoms: _222  and  _223
REMARK   88  A    between atoms: _222  and  _225
REMARK   89  A    between atoms: _228  and  _230
REMARK   90  A    between atoms: _230  and  _231
REMARK   91  A    between atoms: _230  and  _233
REMARK   92  A    between atoms: _233  and  _234
REMARK   93  A    between atoms: _234  and  _235
REMARK   94  A    between atoms: _235  and  _236
REMARK   95  A    between atoms: _245  and  _247
REMARK   96  A    between atoms: _247  and  _248
REMARK   97  A    between atoms: _250  and  _252
REMARK   98  A    between atoms: _252  and  _253
REMARK   99  A    between atoms: _252  and  _255
REMARK  100  A    between atoms: _255  and  _256
REMARK  101  A    between atoms: _262  and  _264
REMARK  102  A    between atoms: _264  and  _265
REMARK  103  A    between atoms: _264  and  _267
REMARK  104  A    between atoms: _267  and  _268
REMARK  105  A    between atoms: _271  and  _273
REMARK  106  A    between atoms: _273  and  _274
REMARK  107  A    between atoms: _273  and  _276
REMARK  108  A    between atoms: _276  and  _277
REMARK  109  A    between atoms: _277  and  _278
REMARK  110  A    between atoms: _283  and  _285
REMARK  111  A    between atoms: _285  and  _286
REMARK  112  A    between atoms: _285  and  _288
REMARK  113  A    between atoms: _288  and  _289
REMARK  114  A    between atoms: _292  and  _294
REMARK  115  A    between atoms: _294  and  _295
REMARK  116  A    between atoms: _294  and  _297
REMARK  117  A    between atoms: _297  and  _298
REMARK  118  A    between atoms: _301  and  _303
REMARK  119  A    between atoms: _303  and  _304
REMARK  120  A    between atoms: _307  and  _309
REMARK  121  A    between atoms: _309  and  _310
REMARK  122  A    between atoms: _309  and  _312
REMARK  123  A    between atoms: _312  and  _313
REMARK  124  A    between atoms: _317  and  ZN_632
REMARK  125  A    between atoms: _318  and  _320
REMARK  126  A    between atoms: _320  and  _321
REMARK  127  A    between atoms: _320  and  _323
REMARK  128  A    between atoms: _323  and  _324
REMARK  129  A    between atoms: _327  and  _329
REMARK  130  A    between atoms: _329  and  _330
REMARK  131  A    between atoms: _329  and  _332
REMARK  132  A    between atoms: _332  and  _333
REMARK  133  A    between atoms: _335  and  _337
REMARK  134  A    between atoms: _337  and  _338
REMARK  135  A    between atoms: _337  and  _340
REMARK  136  A    between atoms: _340  and  _341
REMARK  137  A    between atoms: _341  and  _342
REMARK  138  A    between atoms: _345  and  _347
REMARK  139  A    between atoms: _347  and  _348
REMARK  140  A    between atoms: _350  and  _352
REMARK  141  A    between atoms: _352  and  _353
REMARK  142  A    between atoms: _356  and  _358
REMARK  143  A    between atoms: _358  and  _359
REMARK  144  A    between atoms: _358  and  _361
REMARK  145  A    between atoms: _361  and  _362
REMARK  146  A    between atoms: _368  and  _370
REMARK  147  A    between atoms: _370  and  _371
REMARK  148  A    between atoms: _370  and  _373
REMARK  149  A    between atoms: _373  and  _374
REMARK  150  A    between atoms: _379  and  _380
REMARK  151  A    between atoms: _382  and  _384
REMARK  152  A    between atoms: _384  and  _385
REMARK  153  A    between atoms: _384  and  _387
REMARK  154  A    between atoms: _387  and  _388
REMARK  155  A    between atoms: _388  and  _389
REMARK  156  A    between atoms: _389  and  _390
REMARK  157  A    between atoms: _390  and  _391
REMARK  158  A    between atoms: _395  and  _397
REMARK  159  A    between atoms: _397  and  _398
REMARK  160  A    between atoms: _397  and  _400
REMARK  161  A    between atoms: _400  and  _401
REMARK  162  A    between atoms: _404  and  _406
REMARK  163  A    between atoms: _406  and  _407
REMARK  164  A    between atoms: _406  and  _409
REMARK  165  A    between atoms: _409  and  _410
REMARK  166  A    between atoms: _410  and  _411
REMARK  167  A    between atoms: _414  and  _416
REMARK  168  A    between atoms: _416  and  _417
REMARK  169  A    between atoms: _416  and  _419
REMARK  170  A    between atoms: _419  and  _420
REMARK  171  A    between atoms: _430  and  _432
REMARK  172  A    between atoms: _432  and  _433
REMARK  173  A    between atoms: _432  and  _435
REMARK  174  A    between atoms: _435  and  _436
REMARK  175  A    between atoms: _436  and  _437
REMARK  176  A    between atoms: _442  and  _444
REMARK  177  A    between atoms: _444  and  _445
REMARK  178  A    between atoms: _444  and  _447
REMARK  179  A    between atoms: _449  and  _451
REMARK  180  A    between atoms: _451  and  _452
REMARK  181  A    between atoms: _454  and  _456
REMARK  182  A    between atoms: _456  and  _457
REMARK  183  A    between atoms: _456  and  _459
REMARK  184  A    between atoms: _459  and  _460
REMARK  185  A    between atoms: _463  and  _465
REMARK  186  A    between atoms: _465  and  _466
REMARK  187  A    between atoms: _465  and  _468
REMARK  188  A    between atoms: _471  and  _473
REMARK  189  A    between atoms: _473  and  _474
REMARK  190  A    between atoms: _473  and  _476
REMARK  191  A    between atoms: _476  and  _477
REMARK  192  A    between atoms: _477  and  _478
REMARK  193  A    between atoms: _483  and  _485
REMARK  194  A    between atoms: _485  and  _486
REMARK  195  A    between atoms: _485  and  _488
REMARK  196  A    between atoms: _488  and  _489
REMARK  197  A    between atoms: _492  and  _494
REMARK  198  A    between atoms: _494  and  _495
REMARK  199  A    between atoms: _494  and  _497
REMARK  200  A    between atoms: _497  and  _498
REMARK  201  A    between atoms: _501  and  _503
REMARK  202  A    between atoms: _503  and  _504
REMARK  203  A    between atoms: _503  and  _506
REMARK  204  A    between atoms: _506  and  _507
REMARK  205  A    between atoms: _507  and  _508
REMARK  206  A    between atoms: _510  and  _512
REMARK  207  A    between atoms: _512  and  _513
REMARK  208  A    between atoms: _512  and  _515
REMARK  209  A    between atoms: _515  and  _516
REMARK  210  A    between atoms: _519  and  _521
REMARK  211  A    between atoms: _521  and  _522
REMARK  212  A    between atoms: _521  and  _524
REMARK  213  A    between atoms: _524  and  _525
REMARK  214  A    between atoms: _526  and  ZN_632
REMARK  215  A    between atoms: _530  and  _532
REMARK  216  A    between atoms: _532  and  _533
REMARK  217  A    between atoms: _532  and  _535
REMARK  218  A    between atoms: _535  and  _536
REMARK  219  A    between atoms: _536  and  _537
REMARK  220  A    between atoms: _537  and  _538
REMARK  221  A    between atoms: _547  and  _549
REMARK  222  A    between atoms: _549  and  _550
REMARK  223  A    between atoms: _553  and  _555
REMARK  224  A    between atoms: _555  and  _556
REMARK  225  A    between atoms: _555  and  _558
REMARK  226  A    between atoms: _558  and  _559
REMARK  227  A    between atoms: _562  and  _564
REMARK  228  A    between atoms: _564  and  _565
REMARK  229  A    between atoms: _564  and  _567
REMARK  230  A    between atoms: _567  and  _568
REMARK  231  A    between atoms: _571  and  _573
REMARK  232  A    between atoms: _573  and  _574
REMARK  233  A    between atoms: _576  and  _578
REMARK  234  A    between atoms: _578  and  _579
REMARK  235  A    between atoms: _578  and  _581
REMARK  236  A    between atoms: _581  and  _582
REMARK  237  A    between atoms: _584  and  _586
REMARK  238  A    between atoms: _586  and  _587
REMARK  239  A    between atoms: _586  and  _589
REMARK  240  A    between atoms: _589  and  _590
REMARK  241  A    between atoms: _590  and  _591
REMARK  242  A    between atoms: _593  and  _595
REMARK  243  A    between atoms: _595  and  _596
REMARK  244  A    between atoms: _595  and  _598
REMARK  245  A    between atoms: _598  and  _599
REMARK  246  A    between atoms: _599  and  _600
REMARK  247  A    between atoms: _603  and  _605
REMARK  248  A    between atoms: _605  and  _606
REMARK  249  A    between atoms: _605  and  _608
REMARK  250  A    between atoms: _608  and  _609
REMARK  251  A    between atoms: _609  and  _610
REMARK  252  A    between atoms: _610  and  _611
REMARK  253  A    between atoms: _620  and  _622
REMARK  254  A    between atoms: _622  and  _623
REMARK  255  A    between atoms: _622  and  _625
REMARK  256  A    between atoms: _625  and  _626
REMARK                            x       y       z     vdW  Elec       q    Type
REMARK                         _______ _______ _______ _____ _____    ______ ____
ROOT
ATOM      1  CA  LEU A   1      -1.592 -30.460  11.915  0.00  0.00    +0.133 C 
ENDROOT
BRANCH   1   2
ATOM      2  N   LEU A   1      -0.759 -31.636  12.258  0.00  0.00    -0.239 NA
ATOM      3  H   LEU A   1      -1.080 -32.298  12.993  0.00  0.00    +0.142 HD
ENDBRANCH   1   2
BRANCH   1   4
ATOM      4  C   LEU A   1      -0.910 -29.115  12.193  0.00  0.00    +0.224 C 
ATOM      5  O   LEU A   1      -0.968 -28.241  11.337  0.00  0.00    -0.287 OA
ENDBRANCH   1   4
BRANCH   1   6
ATOM      6  CB  LEU A   1      -3.004 -30.498  12.545  0.00  0.00    +0.025 C 
BRANCH   6   7
ATOM      7  CG  LEU A   1      -3.915 -31.653  12.073  0.00  0.00    +0.002 C 
ATOM      8  CD2 LEU A   1      -5.328 -31.552  12.649  0.00  0.00    +0.000 C 
ATOM      9  CD1 LEU A   1      -3.980 -31.866  10.547  0.00  0.00    +0.000 C 
ENDBRANCH   6   7
ENDBRANCH   1   6
TORSDOF 4
REMARK  Name = ../refined-set-2016/4hwp/4hwp_pocket.pdb
REMARK  256 active torsions:
REMARK  status: ('A' for Active; 'I' for Inactive)
REMARK    1  A    between atoms: _1  and  _3
REMARK    2  A    between atoms: _3  and  _4
REMARK    3  A    between atoms: _6  and  _8
REMARK    4  A    between atoms: _8  and  _9
REMARK    5  A    between atoms: _8  and  _11
REMARK    6  A    between atoms: _11  and  _12
REMARK    7  A    between atoms: _17  and  _19
REMARK    8  A    between atoms: _19  and  _20
REMARK    9  A    between atoms: _19  and  _22
REMARK   10  A    between atoms: _22  and  _23
REMARK   11  A    between atoms: _28  and  _29
REMARK   12  A    between atoms: _31  and  _33
REMARK   13  A    between atoms: _33  and  _34
REMARK   14  A    between atoms: _38  and  _39
REMARK   15  A    between atoms: _44  and  _46
REMARK   16  A    between atoms: _46  and  _47
REMARK   17  A    between atoms: _46  and  _49
REMARK   18  A    between atoms: _49  and  _50
REMARK   19  A    between atoms: _50  and  _51
REMARK   20  A    between atoms: _53  and  _55
REMARK   21  A    between atoms: _55  and  _56
REMARK   22  A    between atoms: _55  and  _58
REMARK   23  A    between atoms: _58  and  _59
REMARK   24  A    between atoms: _64  and  _66
REMARK   25  A    between atoms: _66  and  _67
REMARK   26  A    between atoms: _66  and  _69
REMARK   27  A    between atoms: _69  and  _70
REMARK   28  A    between atoms: _70  and  ZN_632
REMARK   29  A    between atoms: _72  and  _73
REMARK   30  A    between atoms: _78  and  _80
REMARK   31  A    between atoms: _80  and  _81
REMARK   32  A    between atoms: _80  and  _83
REMARK   33  A    between atoms: _83  and  _84
REMARK   34  A    between atoms: _89  and  _91
REMARK   35  A    between atoms: _91  and  _92
REMARK   36  A    between atoms: _91  and  _94
REMARK   37  A    between atoms: _96  and  _98
REMARK   38  A    between atoms: _98  and  _99
REMARK   39  A    between atoms: _98  and  _101
REMARK   40  A    between atoms: _101  and  _102
REMARK   41  A    between atoms: _107  and  _109
REMARK   42  A    between atoms: _109  and  _110
REMARK   43  A    between atoms: _109  and  _112
REMARK   44  A    between atoms: _112  and  _113
REMARK   45  A    between atoms: _113  and  _114
REMARK   46  A    between atoms: _114  and  _115
REMARK   47  A    between atoms: _124  and  _126
REMARK   48  A    between atoms: _126  and  _127
REMARK   49  A    between atoms: _126  and  _129
REMARK   50  A    between atoms: _129  and  _130
REMARK   51  A    between atoms: _135  and  _137
REMARK   52  A    between atoms: _137  and  _138
REMARK   53  A    between atoms: _137  and  _140
REMARK   54  A    between atoms: _140  and  _141
REMARK   55  A    between atoms: _141  and  _142
REMARK   56  A    between atoms: _146  and  _147
REMARK   57  A    between atoms: _152  and  _154
REMARK   58  A    between atoms: _154  and  _155
REMARK   59  A    between atoms: _154  and  _157
REMARK   60  A    between atoms: _157  and  _158
REMARK   61  A    between atoms: _160  and  _162
REMARK   62  A    between atoms: _162  and  _163
REMARK   63  A    between atoms: _162  and  _165
REMARK   64  A    between atoms: _165  and  _166
REMARK   65  A    between atoms: _169  and  _171
REMARK   66  A    between atoms: _171  and  _172
REMARK   67  A    between atoms: _171  and  _174
REMARK   68  A    between atoms: _174  and  _175
REMARK   69  A    between atoms: _180  and  _182
REMARK   70  A    between atoms: _182  and  _183
REMARK   71  A    between atoms: _185  and  _187
REMARK   72  A    between atoms: _187  and  _188
REMARK   73  A    between atoms: _187  and  _190
REMARK   74  A    between atoms: _190  and  _191
REMARK   75  A    between atoms: _194  and  _196
REMARK   76  A    between atoms: _196  and  _197
REMARK   77  A    between atoms: _196  and  _199
REMARK   78  A    between atoms: _199  and  _200
REMARK   79  A    between atoms: _200  and  _201
REMARK   80  A    between atoms: _203  and  _205
REMARK   81  A    between atoms: _205  and  _206
REMARK   82  A    between atoms: _205  and  _208
REMARK   83  A    between atoms: _208  and  _209
REMARK   84  A    between atoms: _209  and  _210
REMARK   85  A    between atoms: _210  and  _211
REMARK   86  A    between atoms: _220  and  _222
REMARK   87  A    between atoms: _222  and  _223
REMARK   88  A    between atoms: _222  and  _225
REMARK   89  A    between atoms: _228  and  _230
REMARK   90  A    between atoms: _230  and  _231
REMARK   91  A    between atoms: _230  and  _233
REMARK   92  A    between atoms: _233  and  _234
REMARK   93  A    between atoms: _234  and  _235
REMARK   94  A    between atoms: _235  and  _236
REMARK   95  A    between atoms: _245  and  _247
REMARK   96  A    between atoms: _247  and  _248
REMARK   97  A    between atoms: _250  and  _252
REMARK   98  A    between atoms: _252  and  _253
REMARK   99  A    between atoms: _252  and  _255
REMARK  100  A    between atoms: _255  and  _256
REMARK  101  A    between atoms: _262  and  _264
REMARK  102  A    between atoms: _264  and  _265
REMARK  103  A    between atoms: _264  and  _267
REMARK  104  A    between atoms: _267  and  _268
REMARK  105  A    between atoms: _271  and  _273
REMARK  106  A    between atoms: _273  and  _274
REMARK  107  A    between atoms: _273  and  _276
REMARK  108  A    between atoms: _276  and  _277
REMARK  109  A    between atoms: _277  and  _278
REMARK  110  A    between atoms: _283  and  _285
REMARK  111  A    between atoms: _285  and  _286
REMARK  112  A    between atoms: _285  and  _288
REMARK  113  A    between atoms: _288  and  _289
REMARK  114  A    between atoms: _292  and  _294
REMARK  115  A    between atoms: _294  and  _295
REMARK  116  A    between atoms: _294  and  _297
REMARK  117  A    between atoms: _297  and  _298
REMARK  118  A    between atoms: _301  and  _303
REMARK  119  A    between atoms: _303  and  _304
REMARK  120  A    between atoms: _307  and  _309
REMARK  121  A    between atoms: _309  and  _310
REMARK  122  A    between atoms: _309  and  _312
REMARK  123  A    between atoms: _312  and  _313
REMARK  124  A    between atoms: _317  and  ZN_632
REMARK  125  A    between atoms: _318  and  _320
REMARK  126  A    between atoms: _320  and  _321
REMARK  127  A    between atoms: _320  and  _323
REMARK  128  A    between atoms: _323  and  _324
REMARK  129  A    between atoms: _327  and  _329
REMARK  130  A    between atoms: _329  and  _330
REMARK  131  A    between atoms: _329  and  _332
REMARK  132  A    between atoms: _332  and  _333
REMARK  133  A    between atoms: _335  and  _337
REMARK  134  A    between atoms: _337  and  _338
REMARK  135  A    between atoms: _337  and  _340
REMARK  136  A    between atoms: _340  and  _341
REMARK  137  A    between atoms: _341  and  _342
REMARK  138  A    between atoms: _345  and  _347
REMARK  139  A    between atoms: _347  and  _348
REMARK  140  A    between atoms: _350  and  _352
REMARK  141  A    between atoms: _352  and  _353
REMARK  142  A    between atoms: _356  and  _358
REMARK  143  A    between atoms: _358  and  _359
REMARK  144  A    between atoms: _358  and  _361
REMARK  145  A    between atoms: _361  and  _362
REMARK  146  A    between atoms: _368  and  _370
REMARK  147  A    between atoms: _370  and  _371
REMARK  148  A    between atoms: _370  and  _373
REMARK  149  A    between atoms: _373  and  _374
REMARK  150  A    between atoms: _379  and  _380
REMARK  151  A    between atoms: _382  and  _384
REMARK  152  A    between atoms: _384  and  _385
REMARK  153  A    between atoms: _384  and  _387
REMARK  154  A    between atoms: _387  and  _388
REMARK  155  A    between atoms: _388  and  _389
REMARK  156  A    between atoms: _389  and  _390
REMARK  157  A    between atoms: _390  and  _391
REMARK  158  A    between atoms: _395  and  _397
REMARK  159  A    between atoms: _397  and  _398
REMARK  160  A    between atoms: _397  and  _400
REMARK  161  A    between atoms: _400  and  _401
REMARK  162  A    between atoms: _404  and  _406
REMARK  163  A    between atoms: _406  and  _407
REMARK  164  A    between atoms: _406  and  _409
REMARK  165  A    between atoms: _409  and  _410
REMARK  166  A    between atoms: _410  and  _411
REMARK  167  A    between atoms: _414  and  _416
REMARK  168  A    between atoms: _416  and  _417
REMARK  169  A    between atoms: _416  and  _419
REMARK  170  A    between atoms: _419  and  _420
REMARK  171  A    between atoms: _430  and  _432
REMARK  172  A    between atoms: _432  and  _433
REMARK  173  A    between atoms: _432  and  _435
REMARK  174  A    between atoms: _435  and  _436
REMARK  175  A    between atoms: _436  and  _437
REMARK  176  A    between atoms: _442  and  _444
REMARK  177  A    between atoms: _444  and  _445
REMARK  178  A    between atoms: _444  and  _447
REMARK  179  A    between atoms: _449  and  _451
REMARK  180  A    between atoms: _451  and  _452
REMARK  181  A    between atoms: _454  and  _456
REMARK  182  A    between atoms: _456  and  _457
REMARK  183  A    between atoms: _456  and  _459
REMARK  184  A    between atoms: _459  and  _460
REMARK  185  A    between atoms: _463  and  _465
REMARK  186  A    between atoms: _465  and  _466
REMARK  187  A    between atoms: _465  and  _468
REMARK  188  A    between atoms: _471  and  _473
REMARK  189  A    between atoms: _473  and  _474
REMARK  190  A    between atoms: _473  and  _476
REMARK  191  A    between atoms: _476  and  _477
REMARK  192  A    between atoms: _477  and  _478
REMARK  193  A    between atoms: _483  and  _485
REMARK  194  A    between atoms: _485  and  _486
REMARK  195  A    between atoms: _485  and  _488
REMARK  196  A    between atoms: _488  and  _489
REMARK  197  A    between atoms: _492  and  _494
REMARK  198  A    between atoms: _494  and  _495
REMARK  199  A    between atoms: _494  and  _497
REMARK  200  A    between atoms: _497  and  _498
REMARK  201  A    between atoms: _501  and  _503
REMARK  202  A    between atoms: _503  and  _504
REMARK  203  A    between atoms: _503  and  _506
REMARK  204  A    between atoms: _506  and  _507
REMARK  205  A    between atoms: _507  and  _508
REMARK  206  A    between atoms: _510  and  _512
REMARK  207  A    between atoms: _512  and  _513
REMARK  208  A    between atoms: _512  and  _515
REMARK  209  A    between atoms: _515  and  _516
REMARK  210  A    between atoms: _519  and  _521
REMARK  211  A    between atoms: _521  and  _522
REMARK  212  A    between atoms: _521  and  _524
REMARK  213  A    between atoms: _524  and  _525
REMARK  214  A    between atoms: _526  and  ZN_632
REMARK  215  A    between atoms: _530  and  _532
REMARK  216  A    between atoms: _532  and  _533
REMARK  217  A    between atoms: _532  and  _535
REMARK  218  A    between atoms: _535  and  _536
REMARK  219  A    between atoms: _536  and  _537
REMARK  220  A    between atoms: _537  and  _538
REMARK  221  A    between atoms: _547  and  _549
REMARK  222  A    between atoms: _549  and  _550
REMARK  223  A    between atoms: _553  and  _555
REMARK  224  A    between atoms: _555  and  _556
REMARK  225  A    between atoms: _555  and  _558
REMARK  226  A    between atoms: _558  and  _559
REMARK  227  A    between atoms: _562  and  _564
REMARK  228  A    between atoms: _564  and  _565
REMARK  229  A    between atoms: _564  and  _567
REMARK  230  A    between atoms: _567  and  _568
REMARK  231  A    between atoms: _571  and  _573
REMARK  232  A    between atoms: _573  and  _574
REMARK  233  A    between atoms: _576  and  _578
REMARK  234  A    between atoms: _578  and  _579
REMARK  235  A    between atoms: _578  and  _581
REMARK  236  A    between atoms: _581  and  _582
REMARK  237  A    between atoms: _584  and  _586
REMARK  238  A    between atoms: _586  and  _587
REMARK  239  A    between atoms: _586  and  _589
REMARK  240  A    between atoms: _589  and  _590
REMARK  241  A    between atoms: _590  and  _591
REMARK  242  A    between atoms: _593  and  _595
REMARK  243  A    between atoms: _595  and  _596
REMARK  244  A    between atoms: _595  and  _598
REMARK  245  A    between atoms: _598  and  _599
REMARK  246  A    between atoms: _599  and  _600
REMARK  247  A    between atoms: _603  and  _605
REMARK  248  A    between atoms: _605  and  _606
REMARK  249  A    between atoms: _605  and  _608
REMARK  250  A    between atoms: _608  and  _609
REMARK  251  A    between atoms: _609  and  _610
REMARK  252  A    between atoms: _610  and  _611
REMARK  253  A    between atoms: _620  and  _622
REMARK  254  A    between atoms: _622  and  _623
REMARK  255  A    between atoms: _622  and  _625
REMARK  256  A    between atoms: _625  and  _626
REMARK                            x       y       z     vdW  Elec       q    Type
REMARK                         _______ _______ _______ _____ _____    ______ ____
ROOT
ATOM      1  O   HOH     1     -12.677 -31.378  16.813  0.00  0.00    +0.000 OA
ENDROOT
TORSDOF 0
REMARK  Name = ../refined-set-2016/4hwp/4hwp_pocket.pdb
REMARK  256 active torsions:
REMARK  status: ('A' for Active; 'I' for Inactive)
REMARK    1  A    between atoms: _1  and  _3
REMARK    2  A    between atoms: _3  and  _4
REMARK    3  A    between atoms: _6  and  _8
REMARK    4  A    between atoms: _8  and  _9
REMARK    5  A    between atoms: _8  and  _11
REMARK    6  A    between atoms: _11  and  _12
REMARK    7  A    between atoms: _17  and  _19
REMARK    8  A    between atoms: _19  and  _20
REMARK    9  A    between atoms: _19  and  _22
REMARK   10  A    between atoms: _22  and  _23
REMARK   11  A    between atoms: _28  and  _29
REMARK   12  A    between atoms: _31  and  _33
REMARK   13  A    between atoms: _33  and  _34
REMARK   14  A    between atoms: _38  and  _39
REMARK   15  A    between atoms: _44  and  _46
REMARK   16  A    between atoms: _46  and  _47
REMARK   17  A    between atoms: _46  and  _49
REMARK   18  A    between atoms: _49  and  _50
REMARK   19  A    between atoms: _50  and  _51
REMARK   20  A    between atoms: _53  and  _55
REMARK   21  A    between atoms: _55  and  _56
REMARK   22  A    between atoms: _55  and  _58
REMARK   23  A    between atoms: _58  and  _59
REMARK   24  A    between atoms: _64  and  _66
REMARK   25  A    between atoms: _66  and  _67
REMARK   26  A    between atoms: _66  and  _69
REMARK   27  A    between atoms: _69  and  _70
REMARK   28  A    between atoms: _70  and  ZN_632
REMARK   29  A    between atoms: _72  and  _73
REMARK   30  A    between atoms: _78  and  _80
REMARK   31  A    between atoms: _80  and  _81
REMARK   32  A    between atoms: _80  and  _83
REMARK   33  A    between atoms: _83  and  _84
REMARK   34  A    between atoms: _89  and  _91
REMARK   35  A    between atoms: _91  and  _92
REMARK   36  A    between atoms: _91  and  _94
REMARK   37  A    between atoms: _96  and  _98
REMARK   38  A    between atoms: _98  and  _99
REMARK   39  A    between atoms: _98  and  _101
REMARK   40  A    between atoms: _101  and  _102
REMARK   41  A    between atoms: _107  and  _109
REMARK   42  A    between atoms: _109  and  _110
REMARK   43  A    between atoms: _109  and  _112
REMARK   44  A    between atoms: _112  and  _113
REMARK   45  A    between atoms: _113  and  _114
REMARK   46  A    between atoms: _114  and  _115
REMARK   47  A    between atoms: _124  and  _126
REMARK   48  A    between atoms: _126  and  _127
REMARK   49  A    between atoms: _126  and  _129
REMARK   50  A    between atoms: _129  and  _130
REMARK   51  A    between atoms: _135  and  _137
REMARK   52  A    between atoms: _137  and  _138
REMARK   53  A    between atoms: _137  and  _140
REMARK   54  A    between atoms: _140  and  _141
REMARK   55  A    between atoms: _141  and  _142
REMARK   56  A    between atoms: _146  and  _147
REMARK   57  A    between atoms: _152  and  _154
REMARK   58  A    between atoms: _154  and  _155
REMARK   59  A    between atoms: _154  and  _157
REMARK   60  A    between atoms: _157  and  _158
REMARK   61  A    between atoms: _160  and  _162
REMARK   62  A    between atoms: _162  and  _163
REMARK   63  A    between atoms: _162  and  _165
REMARK   64  A    between atoms: _165  and  _166
REMARK   65  A    between atoms: _169  and  _171
REMARK   66  A    between atoms: _171  and  _172
REMARK   67  A    between atoms: _171  and  _174
REMARK   68  A    between atoms: _174  and  _175
REMARK   69  A    between atoms: _180  and  _182
REMARK   70  A    between atoms: _182  and  _183
REMARK   71  A    between atoms: _185  and  _187
REMARK   72  A    between atoms: _187  and  _188
REMARK   73  A    between atoms: _187  and  _190
REMARK   74  A    between atoms: _190  and  _191
REMARK   75  A    between atoms: _194  and  _196
REMARK   76  A    between atoms: _196  and  _197
REMARK   77  A    between atoms: _196  and  _199
REMARK   78  A    between atoms: _199  and  _200
REMARK   79  A    between atoms: _200  and  _201
REMARK   80  A    between atoms: _203  and  _205
REMARK   81  A    between atoms: _205  and  _206
REMARK   82  A    between atoms: _205  and  _208
REMARK   83  A    between atoms: _208  and  _209
REMARK   84  A    between atoms: _209  and  _210
REMARK   85  A    between atoms: _210  and  _211
REMARK   86  A    between atoms: _220  and  _222
REMARK   87  A    between atoms: _222  and  _223
REMARK   88  A    between atoms: _222  and  _225
REMARK   89  A    between atoms: _228  and  _230
REMARK   90  A    between atoms: _230  and  _231
REMARK   91  A    between atoms: _230  and  _233
REMARK   92  A    between atoms: _233  and  _234
REMARK   93  A    between atoms: _234  and  _235
REMARK   94  A    between atoms: _235  and  _236
REMARK   95  A    between atoms: _245  and  _247
REMARK   96  A    between atoms: _247  and  _248
REMARK   97  A    between atoms: _250  and  _252
REMARK   98  A    between atoms: _252  and  _253
REMARK   99  A    between atoms: _252  and  _255
REMARK  100  A    between atoms: _255  and  _256
REMARK  101  A    between atoms: _262  and  _264
REMARK  102  A    between atoms: _264  and  _265
REMARK  103  A    between atoms: _264  and  _267
REMARK  104  A    between atoms: _267  and  _268
REMARK  105  A    between atoms: _271  and  _273
REMARK  106  A    between atoms: _273  and  _274
REMARK  107  A    between atoms: _273  and  _276
REMARK  108  A    between atoms: _276  and  _277
REMARK  109  A    between atoms: _277  and  _278
REMARK  110  A    between atoms: _283  and  _285
REMARK  111  A    between atoms: _285  and  _286
REMARK  112  A    between atoms: _285  and  _288
REMARK  113  A    between atoms: _288  and  _289
REMARK  114  A    between atoms: _292  and  _294
REMARK  115  A    between atoms: _294  and  _295
REMARK  116  A    between atoms: _294  and  _297
REMARK  117  A    between atoms: _297  and  _298
REMARK  118  A    between atoms: _301  and  _303
REMARK  119  A    between atoms: _303  and  _304
REMARK  120  A    between atoms: _307  and  _309
REMARK  121  A    between atoms: _309  and  _310
REMARK  122  A    between atoms: _309  and  _312
REMARK  123  A    between atoms: _312  and  _313
REMARK  124  A    between atoms: _317  and  ZN_632
REMARK  125  A    between atoms: _318  and  _320
REMARK  126  A    between atoms: _320  and  _321
REMARK  127  A    between atoms: _320  and  _323
REMARK  128  A    between atoms: _323  and  _324
REMARK  129  A    between atoms: _327  and  _329
REMARK  130  A    between atoms: _329  and  _330
REMARK  131  A    between atoms: _329  and  _332
REMARK  132  A    between atoms: _332  and  _333
REMARK  133  A    between atoms: _335  and  _337
REMARK  134  A    between atoms: _337  and  _338
REMARK  135  A    between atoms: _337  and  _340
REMARK  136  A    between atoms: _340  and  _341
REMARK  137  A    between atoms: _341  and  _342
REMARK  138  A    between atoms: _345  and  _347
REMARK  139  A    between atoms: _347  and  _348
REMARK  140  A    between atoms: _350  and  _352
REMARK  141  A    between atoms: _352  and  _353
REMARK  142  A    between atoms: _356  and  _358
REMARK  143  A    between atoms: _358  and  _359
REMARK  144  A    between atoms: _358  and  _361
REMARK  145  A    between atoms: _361  and  _362
REMARK  146  A    between atoms: _368  and  _370
REMARK  147  A    between atoms: _370  and  _371
REMARK  148  A    between atoms: _370  and  _373
REMARK  149  A    between atoms: _373  and  _374
REMARK  150  A    between atoms: _379  and  _380
REMARK  151  A    between atoms: _382  and  _384
REMARK  152  A    between atoms: _384  and  _385
REMARK  153  A    between atoms: _384  and  _387
REMARK  154  A    between atoms: _387  and  _388
REMARK  155  A    between atoms: _388  and  _389
REMARK  156  A    between atoms: _389  and  _390
REMARK  157  A    between atoms: _390  and  _391
REMARK  158  A    between atoms: _395  and  _397
REMARK  159  A    between atoms: _397  and  _398
REMARK  160  A    between atoms: _397  and  _400
REMARK  161  A    between atoms: _400  and  _401
REMARK  162  A    between atoms: _404  and  _406
REMARK  163  A    between atoms: _406  and  _407
REMARK  164  A    between atoms: _406  and  _409
REMARK  165  A    between atoms: _409  and  _410
REMARK  166  A    between atoms: _410  and  _411
REMARK  167  A    between atoms: _414  and  _416
REMARK  168  A    between atoms: _416  and  _417
REMARK  169  A    between atoms: _416  and  _419
REMARK  170  A    between atoms: _419  and  _420
REMARK  171  A    between atoms: _430  and  _432
REMARK  172  A    between atoms: _432  and  _433
REMARK  173  A    between atoms: _432  and  _435
REMARK  174  A    between atoms: _435  and  _436
REMARK  175  A    between atoms: _436  and  _437
REMARK  176  A    between atoms: _442  and  _444
REMARK  177  A    between atoms: _444  and  _445
REMARK  178  A    between atoms: _444  and  _447
REMARK  179  A    between atoms: _449  and  _451
REMARK  180  A    between atoms: _451  and  _452
REMARK  181  A    between atoms: _454  and  _456
REMARK  182  A    between atoms: _456  and  _457
REMARK  183  A    between atoms: _456  and  _459
REMARK  184  A    between atoms: _459  and  _460
REMARK  185  A    between atoms: _463  and  _465
REMARK  186  A    between atoms: _465  and  _466
REMARK  187  A    between atoms: _465  and  _468
REMARK  188  A    between atoms: _471  and  _473
REMARK  189  A    between atoms: _473  and  _474
REMARK  190  A    between atoms: _473  and  _476
REMARK  191  A    between atoms: _476  and  _477
REMARK  192  A    between atoms: _477  and  _478
REMARK  193  A    between atoms: _483  and  _485
REMARK  194  A    between atoms: _485  and  _486
REMARK  195  A    between atoms: _485  and  _488
REMARK  196  A    between atoms: _488  and  _489
REMARK  197  A    between atoms: _492  and  _494
REMARK  198  A    between atoms: _494  and  _495
REMARK  199  A    between atoms: _494  and  _497
REMARK  200  A    between atoms: _497  and  _498
REMARK  201  A    between atoms: _501  and  _503
REMARK  202  A    between atoms: _503  and  _504
REMARK  203  A    between atoms: _503  and  _506
REMARK  204  A    between atoms: _506  and  _507
REMARK  205  A    between atoms: _507  and  _508
REMARK  206  A    between atoms: _510  and  _512
REMARK  207  A    between atoms: _512  and  _513
REMARK  208  A    between atoms: _512  and  _515
REMARK  209  A    between atoms: _515  and  _516
REMARK  210  A    between atoms: _519  and  _521
REMARK  211  A    between atoms: _521  and  _522
REMARK  212  A    between atoms: _521  and  _524
REMARK  213  A    between atoms: _524  and  _525
REMARK  214  A    between atoms: _526  and  ZN_632
REMARK  215  A    between atoms: _530  and  _532
REMARK  216  A    between atoms: _532  and  _533
REMARK  217  A    between atoms: _532  and  _535
REMARK  218  A    between atoms: _535  and  _536
REMARK  219  A    between atoms: _536  and  _537
REMARK  220  A    between atoms: _537  and  _538
REMARK  221  A    between atoms: _547  and  _549
REMARK  222  A    between atoms: _549  and  _550
REMARK  223  A    between atoms: _553  and  _555
REMARK  224  A    between atoms: _555  and  _556
REMARK  225  A    between atoms: _555  and  _558
REMARK  226  A    between atoms: _558  and  _559
REMARK  227  A    between atoms: _562  and  _564
REMARK  228  A    between atoms: _564  and  _565
REMARK  229  A    between atoms: _564  and  _567
REMARK  230  A    between atoms: _567  and  _568
REMARK  231  A    between atoms: _571  and  _573
REMARK  232  A    between atoms: _573  and  _574
REMARK  233  A    between atoms: _576  and  _578
REMARK  234  A    between atoms: _578  and  _579
REMARK  235  A    between atoms: _578  and  _581
REMARK  236  A    between atoms: _581  and  _582
REMARK  237  A    between atoms: _584  and  _586
REMARK  238  A    between atoms: _586  and  _587
REMARK  239  A    between atoms: _586  and  _589
REMARK  240  A    between atoms: _589  and  _590
REMARK  241  A    between atoms: _590  and  _591
REMARK  242  A    between atoms: _593  and  _595
REMARK  243  A    between atoms: _595  and  _596
REMARK  244  A    between atoms: _595  and  _598
REMARK  245  A    between atoms: _598  and  _599
REMARK  246  A    between atoms: _599  and  _600
REMARK  247  A    between atoms: _603  and  _605
REMARK  248  A    between atoms: _605  and  _606
REMARK  249  A    between atoms: _605  and  _608
REMARK  250  A    between atoms: _608  and  _609
REMARK  251  A    between atoms: _609  and  _610
REMARK  252  A    between atoms: _610  and  _611
REMARK  253  A    between atoms: _620  and  _622
REMARK  254  A    between atoms: _622  and  _623
REMARK  255  A    between atoms: _622  and  _625
REMARK  256  A    between atoms: _625  and  _626
REMARK                            x       y       z     vdW  Elec       q    Type
REMARK                         _______ _______ _______ _____ _____    ______ ____
ROOT
ATOM      1  O   HOH     1     -20.176 -38.897  23.786  0.00  0.00    +0.000 OA
ENDROOT
TORSDOF 0
REMARK  Name = ../refined-set-2016/4hwp/4hwp_pocket.pdb
REMARK  256 active torsions:
REMARK  status: ('A' for Active; 'I' for Inactive)
REMARK    1  A    between atoms: _1  and  _3
REMARK    2  A    between atoms: _3  and  _4
REMARK    3  A    between atoms: _6  and  _8
REMARK    4  A    between atoms: _8  and  _9
REMARK    5  A    between atoms: _8  and  _11
REMARK    6  A    between atoms: _11  and  _12
REMARK    7  A    between atoms: _17  and  _19
REMARK    8  A    between atoms: _19  and  _20
REMARK    9  A    between atoms: _19  and  _22
REMARK   10  A    between atoms: _22  and  _23
REMARK   11  A    between atoms: _28  and  _29
REMARK   12  A    between atoms: _31  and  _33
REMARK   13  A    between atoms: _33  and  _34
REMARK   14  A    between atoms: _38  and  _39
REMARK   15  A    between atoms: _44  and  _46
REMARK   16  A    between atoms: _46  and  _47
REMARK   17  A    between atoms: _46  and  _49
REMARK   18  A    between atoms: _49  and  _50
REMARK   19  A    between atoms: _50  and  _51
REMARK   20  A    between atoms: _53  and  _55
REMARK   21  A    between atoms: _55  and  _56
REMARK   22  A    between atoms: _55  and  _58
REMARK   23  A    between atoms: _58  and  _59
REMARK   24  A    between atoms: _64  and  _66
REMARK   25  A    between atoms: _66  and  _67
REMARK   26  A    between atoms: _66  and  _69
REMARK   27  A    between atoms: _69  and  _70
REMARK   28  A    between atoms: _70  and  ZN_632
REMARK   29  A    between atoms: _72  and  _73
REMARK   30  A    between atoms: _78  and  _80
REMARK   31  A    between atoms: _80  and  _81
REMARK   32  A    between atoms: _80  and  _83
REMARK   33  A    between atoms: _83  and  _84
REMARK   34  A    between atoms: _89  and  _91
REMARK   35  A    between atoms: _91  and  _92
REMARK   36  A    between atoms: _91  and  _94
REMARK   37  A    between atoms: _96  and  _98
REMARK   38  A    between atoms: _98  and  _99
REMARK   39  A    between atoms: _98  and  _101
REMARK   40  A    between atoms: _101  and  _102
REMARK   41  A    between atoms: _107  and  _109
REMARK   42  A    between atoms: _109  and  _110
REMARK   43  A    between atoms: _109  and  _112
REMARK   44  A    between atoms: _112  and  _113
REMARK   45  A    between atoms: _113  and  _114
REMARK   46  A    between atoms: _114  and  _115
REMARK   47  A    between atoms: _124  and  _126
REMARK   48  A    between atoms: _126  and  _127
REMARK   49  A    between atoms: _126  and  _129
REMARK   50  A    between atoms: _129  and  _130
REMARK   51  A    between atoms: _135  and  _137
REMARK   52  A    between atoms: _137  and  _138
REMARK   53  A    between atoms: _137  and  _140
REMARK   54  A    between atoms: _140  and  _141
REMARK   55  A    between atoms: _141  and  _142
REMARK   56  A    between atoms: _146  and  _147
REMARK   57  A    between atoms: _152  and  _154
REMARK   58  A    between atoms: _154  and  _155
REMARK   59  A    between atoms: _154  and  _157
REMARK   60  A    between atoms: _157  and  _158
REMARK   61  A    between atoms: _160  and  _162
REMARK   62  A    between atoms: _162  and  _163
REMARK   63  A    between atoms: _162  and  _165
REMARK   64  A    between atoms: _165  and  _166
REMARK   65  A    between atoms: _169  and  _171
REMARK   66  A    between atoms: _171  and  _172
REMARK   67  A    between atoms: _171  and  _174
REMARK   68  A    between atoms: _174  and  _175
REMARK   69  A    between atoms: _180  and  _182
REMARK   70  A    between atoms: _182  and  _183
REMARK   71  A    between atoms: _185  and  _187
REMARK   72  A    between atoms: _187  and  _188
REMARK   73  A    between atoms: _187  and  _190
REMARK   74  A    between atoms: _190  and  _191
REMARK   75  A    between atoms: _194  and  _196
REMARK   76  A    between atoms: _196  and  _197
REMARK   77  A    between atoms: _196  and  _199
REMARK   78  A    between atoms: _199  and  _200
REMARK   79  A    between atoms: _200  and  _201
REMARK   80  A    between atoms: _203  and  _205
REMARK   81  A    between atoms: _205  and  _206
REMARK   82  A    between atoms: _205  and  _208
REMARK   83  A    between atoms: _208  and  _209
REMARK   84  A    between atoms: _209  and  _210
REMARK   85  A    between atoms: _210  and  _211
REMARK   86  A    between atoms: _220  and  _222
REMARK   87  A    between atoms: _222  and  _223
REMARK   88  A    between atoms: _222  and  _225
REMARK   89  A    between atoms: _228  and  _230
REMARK   90  A    between atoms: _230  and  _231
REMARK   91  A    between atoms: _230  and  _233
REMARK   92  A    between atoms: _233  and  _234
REMARK   93  A    between atoms: _234  and  _235
REMARK   94  A    between atoms: _235  and  _236
REMARK   95  A    between atoms: _245  and  _247
REMARK   96  A    between atoms: _247  and  _248
REMARK   97  A    between atoms: _250  and  _252
REMARK   98  A    between atoms: _252  and  _253
REMARK   99  A    between atoms: _252  and  _255
REMARK  100  A    between atoms: _255  and  _256
REMARK  101  A    between atoms: _262  and  _264
REMARK  102  A    between atoms: _264  and  _265
REMARK  103  A    between atoms: _264  and  _267
REMARK  104  A    between atoms: _267  and  _268
REMARK  105  A    between atoms: _271  and  _273
REMARK  106  A    between atoms: _273  and  _274
REMARK  107  A    between atoms: _273  and  _276
REMARK  108  A    between atoms: _276  and  _277
REMARK  109  A    between atoms: _277  and  _278
REMARK  110  A    between atoms: _283  and  _285
REMARK  111  A    between atoms: _285  and  _286
REMARK  112  A    between atoms: _285  and  _288
REMARK  113  A    between atoms: _288  and  _289
REMARK  114  A    between atoms: _292  and  _294
REMARK  115  A    between atoms: _294  and  _295
REMARK  116  A    between atoms: _294  and  _297
REMARK  117  A    between atoms: _297  and  _298
REMARK  118  A    between atoms: _301  and  _303
REMARK  119  A    between atoms: _303  and  _304
REMARK  120  A    between atoms: _307  and  _309
REMARK  121  A    between atoms: _309  and  _310
REMARK  122  A    between atoms: _309  and  _312
REMARK  123  A    between atoms: _312  and  _313
REMARK  124  A    between atoms: _317  and  ZN_632
REMARK  125  A    between atoms: _318  and  _320
REMARK  126  A    between atoms: _320  and  _321
REMARK  127  A    between atoms: _320  and  _323
REMARK  128  A    between atoms: _323  and  _324
REMARK  129  A    between atoms: _327  and  _329
REMARK  130  A    between atoms: _329  and  _330
REMARK  131  A    between atoms: _329  and  _332
REMARK  132  A    between atoms: _332  and  _333
REMARK  133  A    between atoms: _335  and  _337
REMARK  134  A    between atoms: _337  and  _338
REMARK  135  A    between atoms: _337  and  _340
REMARK  136  A    between atoms: _340  and  _341
REMARK  137  A    between atoms: _341  and  _342
REMARK  138  A    between atoms: _345  and  _347
REMARK  139  A    between atoms: _347  and  _348
REMARK  140  A    between atoms: _350  and  _352
REMARK  141  A    between atoms: _352  and  _353
REMARK  142  A    between atoms: _356  and  _358
REMARK  143  A    between atoms: _358  and  _359
REMARK  144  A    between atoms: _358  and  _361
REMARK  145  A    between atoms: _361  and  _362
REMARK  146  A    between atoms: _368  and  _370
REMARK  147  A    between atoms: _370  and  _371
REMARK  148  A    between atoms: _370  and  _373
REMARK  149  A    between atoms: _373  and  _374
REMARK  150  A    between atoms: _379  and  _380
REMARK  151  A    between atoms: _382  and  _384
REMARK  152  A    between atoms: _384  and  _385
REMARK  153  A    between atoms: _384  and  _387
REMARK  154  A    between atoms: _387  and  _388
REMARK  155  A    between atoms: _388  and  _389
REMARK  156  A    between atoms: _389  and  _390
REMARK  157  A    between atoms: _390  and  _391
REMARK  158  A    between atoms: _395  and  _397
REMARK  159  A    between atoms: _397  and  _398
REMARK  160  A    between atoms: _397  and  _400
REMARK  161  A    between atoms: _400  and  _401
REMARK  162  A    between atoms: _404  and  _406
REMARK  163  A    between atoms: _406  and  _407
REMARK  164  A    between atoms: _406  and  _409
REMARK  165  A    between atoms: _409  and  _410
REMARK  166  A    between atoms: _410  and  _411
REMARK  167  A    between atoms: _414  and  _416
REMARK  168  A    between atoms: _416  and  _417
REMARK  169  A    between atoms: _416  and  _419
REMARK  170  A    between atoms: _419  and  _420
REMARK  171  A    between atoms: _430  and  _432
REMARK  172  A    between atoms: _432  and  _433
REMARK  173  A    between atoms: _432  and  _435
REMARK  174  A    between atoms: _435  and  _436
REMARK  175  A    between atoms: _436  and  _437
REMARK  176  A    between atoms: _442  and  _444
REMARK  177  A    between atoms: _444  and  _445
REMARK  178  A    between atoms: _444  and  _447
REMARK  179  A    between atoms: _449  and  _451
REMARK  180  A    between atoms: _451  and  _452
REMARK  181  A    between atoms: _454  and  _456
REMARK  182  A    between atoms: _456  and  _457
REMARK  183  A    between atoms: _456  and  _459
REMARK  184  A    between atoms: _459  and  _460
REMARK  185  A    between atoms: _463  and  _465
REMARK  186  A    between atoms: _465  and  _466
REMARK  187  A    between atoms: _465  and  _468
REMARK  188  A    between atoms: _471  and  _473
REMARK  189  A    between atoms: _473  and  _474
REMARK  190  A    between atoms: _473  and  _476
REMARK  191  A    between atoms: _476  and  _477
REMARK  192  A    between atoms: _477  and  _478
REMARK  193  A    between atoms: _483  and  _485
REMARK  194  A    between atoms: _485  and  _486
REMARK  195  A    between atoms: _485  and  _488
REMARK  196  A    between atoms: _488  and  _489
REMARK  197  A    between atoms: _492  and  _494
REMARK  198  A    between atoms: _494  and  _495
REMARK  199  A    between atoms: _494  and  _497
REMARK  200  A    between atoms: _497  and  _498
REMARK  201  A    between atoms: _501  and  _503
REMARK  202  A    between atoms: _503  and  _504
REMARK  203  A    between atoms: _503  and  _506
REMARK  204  A    between atoms: _506  and  _507
REMARK  205  A    between atoms: _507  and  _508
REMARK  206  A    between atoms: _510  and  _512
REMARK  207  A    between atoms: _512  and  _513
REMARK  208  A    between atoms: _512  and  _515
REMARK  209  A    between atoms: _515  and  _516
REMARK  210  A    between atoms: _519  and  _521
REMARK  211  A    between atoms: _521  and  _522
REMARK  212  A    between atoms: _521  and  _524
REMARK  213  A    between atoms: _524  and  _525
REMARK  214  A    between atoms: _526  and  ZN_632
REMARK  215  A    between atoms: _530  and  _532
REMARK  216  A    between atoms: _532  and  _533
REMARK  217  A    between atoms: _532  and  _535
REMARK  218  A    between atoms: _535  and  _536
REMARK  219  A    between atoms: _536  and  _537
REMARK  220  A    between atoms: _537  and  _538
REMARK  221  A    between atoms: _547  and  _549
REMARK  222  A    between atoms: _549  and  _550
REMARK  223  A    between atoms: _553  and  _555
REMARK  224  A    between atoms: _555  and  _556
REMARK  225  A    between atoms: _555  and  _558
REMARK  226  A    between atoms: _558  and  _559
REMARK  227  A    between atoms: _562  and  _564
REMARK  228  A    between atoms: _564  and  _565
REMARK  229  A    between atoms: _564  and  _567
REMARK  230  A    between atoms: _567  and  _568
REMARK  231  A    between atoms: _571  and  _573
REMARK  232  A    between atoms: _573  and  _574
REMARK  233  A    between atoms: _576  and  _578
REMARK  234  A    between atoms: _578  and  _579
REMARK  235  A    between atoms: _578  and  _581
REMARK  236  A    between atoms: _581  and  _582
REMARK  237  A    between atoms: _584  and  _586
REMARK  238  A    between atoms: _586  and  _587
REMARK  239  A    between atoms: _586  and  _589
REMARK  240  A    between atoms: _589  and  _590
REMARK  241  A    between atoms: _590  and  _591
REMARK  242  A    between atoms: _593  and  _595
REMARK  243  A    between atoms: _595  and  _596
REMARK  244  A    between atoms: _595  and  _598
REMARK  245  A    between atoms: _598  and  _599
REMARK  246  A    between atoms: _599  and  _600
REMARK  247  A    between atoms: _603  and  _605
REMARK  248  A    between atoms: _605  and  _606
REMARK  249  A    between atoms: _605  and  _608
REMARK  250  A    between atoms: _608  and  _609
REMARK  251  A    between atoms: _609  and  _610
REMARK  252  A    between atoms: _610  and  _611
REMARK  253  A    between atoms: _620  and  _622
REMARK  254  A    between atoms: _622  and  _623
REMARK  255  A    between atoms: _622  and  _625
REMARK  256  A    between atoms: _625  and  _626
REMARK                            x       y       z     vdW  Elec       q    Type
REMARK                         _______ _______ _______ _____ _____    ______ ____
ROOT
ATOM      1  O   HOH     1     -29.690 -39.126  14.207  0.00  0.00    +0.000 OA
ENDROOT
TORSDOF 0
REMARK  Name = ../refined-set-2016/4hwp/4hwp_pocket.pdb
REMARK  256 active torsions:
REMARK  status: ('A' for Active; 'I' for Inactive)
REMARK    1  A    between atoms: _1  and  _3
REMARK    2  A    between atoms: _3  and  _4
REMARK    3  A    between atoms: _6  and  _8
REMARK    4  A    between atoms: _8  and  _9
REMARK    5  A    between atoms: _8  and  _11
REMARK    6  A    between atoms: _11  and  _12
REMARK    7  A    between atoms: _17  and  _19
REMARK    8  A    between atoms: _19  and  _20
REMARK    9  A    between atoms: _19  and  _22
REMARK   10  A    between atoms: _22  and  _23
REMARK   11  A    between atoms: _28  and  _29
REMARK   12  A    between atoms: _31  and  _33
REMARK   13  A    between atoms: _33  and  _34
REMARK   14  A    between atoms: _38  and  _39
REMARK   15  A    between atoms: _44  and  _46
REMARK   16  A    between atoms: _46  and  _47
REMARK   17  A    between atoms: _46  and  _49
REMARK   18  A    between atoms: _49  and  _50
REMARK   19  A    between atoms: _50  and  _51
REMARK   20  A    between atoms: _53  and  _55
REMARK   21  A    between atoms: _55  and  _56
REMARK   22  A    between atoms: _55  and  _58
REMARK   23  A    between atoms: _58  and  _59
REMARK   24  A    between atoms: _64  and  _66
REMARK   25  A    between atoms: _66  and  _67
REMARK   26  A    between atoms: _66  and  _69
REMARK   27  A    between atoms: _69  and  _70
REMARK   28  A    between atoms: _70  and  ZN_632
REMARK   29  A    between atoms: _72  and  _73
REMARK   30  A    between atoms: _78  and  _80
REMARK   31  A    between atoms: _80  and  _81
REMARK   32  A    between atoms: _80  and  _83
REMARK   33  A    between atoms: _83  and  _84
REMARK   34  A    between atoms: _89  and  _91
REMARK   35  A    between atoms: _91  and  _92
REMARK   36  A    between atoms: _91  and  _94
REMARK   37  A    between atoms: _96  and  _98
REMARK   38  A    between atoms: _98  and  _99
REMARK   39  A    between atoms: _98  and  _101
REMARK   40  A    between atoms: _101  and  _102
REMARK   41  A    between atoms: _107  and  _109
REMARK   42  A    between atoms: _109  and  _110
REMARK   43  A    between atoms: _109  and  _112
REMARK   44  A    between atoms: _112  and  _113
REMARK   45  A    between atoms: _113  and  _114
REMARK   46  A    between atoms: _114  and  _115
REMARK   47  A    between atoms: _124  and  _126
REMARK   48  A    between atoms: _126  and  _127
REMARK   49  A    between atoms: _126  and  _129
REMARK   50  A    between atoms: _129  and  _130
REMARK   51  A    between atoms: _135  and  _137
REMARK   52  A    between atoms: _137  and  _138
REMARK   53  A    between atoms: _137  and  _140
REMARK   54  A    between atoms: _140  and  _141
REMARK   55  A    between atoms: _141  and  _142
REMARK   56  A    between atoms: _146  and  _147
REMARK   57  A    between atoms: _152  and  _154
REMARK   58  A    between atoms: _154  and  _155
REMARK   59  A    between atoms: _154  and  _157
REMARK   60  A    between atoms: _157  and  _158
REMARK   61  A    between atoms: _160  and  _162
REMARK   62  A    between atoms: _162  and  _163
REMARK   63  A    between atoms: _162  and  _165
REMARK   64  A    between atoms: _165  and  _166
REMARK   65  A    between atoms: _169  and  _171
REMARK   66  A    between atoms: _171  and  _172
REMARK   67  A    between atoms: _171  and  _174
REMARK   68  A    between atoms: _174  and  _175
REMARK   69  A    between atoms: _180  and  _182
REMARK   70  A    between atoms: _182  and  _183
REMARK   71  A    between atoms: _185  and  _187
REMARK   72  A    between atoms: _187  and  _188
REMARK   73  A    between atoms: _187  and  _190
REMARK   74  A    between atoms: _190  and  _191
REMARK   75  A    between atoms: _194  and  _196
REMARK   76  A    between atoms: _196  and  _197
REMARK   77  A    between atoms: _196  and  _199
REMARK   78  A    between atoms: _199  and  _200
REMARK   79  A    between atoms: _200  and  _201
REMARK   80  A    between atoms: _203  and  _205
REMARK   81  A    between atoms: _205  and  _206
REMARK   82  A    between atoms: _205  and  _208
REMARK   83  A    between atoms: _208  and  _209
REMARK   84  A    between atoms: _209  and  _210
REMARK   85  A    between atoms: _210  and  _211
REMARK   86  A    between atoms: _220  and  _222
REMARK   87  A    between atoms: _222  and  _223
REMARK   88  A    between atoms: _222  and  _225
REMARK   89  A    between atoms: _228  and  _230
REMARK   90  A    between atoms: _230  and  _231
REMARK   91  A    between atoms: _230  and  _233
REMARK   92  A    between atoms: _233  and  _234
REMARK   93  A    between atoms: _234  and  _235
REMARK   94  A    between atoms: _235  and  _236
REMARK   95  A    between atoms: _245  and  _247
REMARK   96  A    between atoms: _247  and  _248
REMARK   97  A    between atoms: _250  and  _252
REMARK   98  A    between atoms: _252  and  _253
REMARK   99  A    between atoms: _252  and  _255
REMARK  100  A    between atoms: _255  and  _256
REMARK  101  A    between atoms: _262  and  _264
REMARK  102  A    between atoms: _264  and  _265
REMARK  103  A    between atoms: _264  and  _267
REMARK  104  A    between atoms: _267  and  _268
REMARK  105  A    between atoms: _271  and  _273
REMARK  106  A    between atoms: _273  and  _274
REMARK  107  A    between atoms: _273  and  _276
REMARK  108  A    between atoms: _276  and  _277
REMARK  109  A    between atoms: _277  and  _278
REMARK  110  A    between atoms: _283  and  _285
REMARK  111  A    between atoms: _285  and  _286
REMARK  112  A    between atoms: _285  and  _288
REMARK  113  A    between atoms: _288  and  _289
REMARK  114  A    between atoms: _292  and  _294
REMARK  115  A    between atoms: _294  and  _295
REMARK  116  A    between atoms: _294  and  _297
REMARK  117  A    between atoms: _297  and  _298
REMARK  118  A    between atoms: _301  and  _303
REMARK  119  A    between atoms: _303  and  _304
REMARK  120  A    between atoms: _307  and  _309
REMARK  121  A    between atoms: _309  and  _310
REMARK  122  A    between atoms: _309  and  _312
REMARK  123  A    between atoms: _312  and  _313
REMARK  124  A    between atoms: _317  and  ZN_632
REMARK  125  A    between atoms: _318  and  _320
REMARK  126  A    between atoms: _320  and  _321
REMARK  127  A    between atoms: _320  and  _323
REMARK  128  A    between atoms: _323  and  _324
REMARK  129  A    between atoms: _327  and  _329
REMARK  130  A    between atoms: _329  and  _330
REMARK  131  A    between atoms: _329  and  _332
REMARK  132  A    between atoms: _332  and  _333
REMARK  133  A    between atoms: _335  and  _337
REMARK  134  A    between atoms: _337  and  _338
REMARK  135  A    between atoms: _337  and  _340
REMARK  136  A    between atoms: _340  and  _341
REMARK  137  A    between atoms: _341  and  _342
REMARK  138  A    between atoms: _345  and  _347
REMARK  139  A    between atoms: _347  and  _348
REMARK  140  A    between atoms: _350  and  _352
REMARK  141  A    between atoms: _352  and  _353
REMARK  142  A    between atoms: _356  and  _358
REMARK  143  A    between atoms: _358  and  _359
REMARK  144  A    between atoms: _358  and  _361
REMARK  145  A    between atoms: _361  and  _362
REMARK  146  A    between atoms: _368  and  _370
REMARK  147  A    between atoms: _370  and  _371
REMARK  148  A    between atoms: _370  and  _373
REMARK  149  A    between atoms: _373  and  _374
REMARK  150  A    between atoms: _379  and  _380
REMARK  151  A    between atoms: _382  and  _384
REMARK  152  A    between atoms: _384  and  _385
REMARK  153  A    between atoms: _384  and  _387
REMARK  154  A    between atoms: _387  and  _388
REMARK  155  A    between atoms: _388  and  _389
REMARK  156  A    between atoms: _389  and  _390
REMARK  157  A    between atoms: _390  and  _391
REMARK  158  A    between atoms: _395  and  _397
REMARK  159  A    between atoms: _397  and  _398
REMARK  160  A    between atoms: _397  and  _400
REMARK  161  A    between atoms: _400  and  _401
REMARK  162  A    between atoms: _404  and  _406
REMARK  163  A    between atoms: _406  and  _407
REMARK  164  A    between atoms: _406  and  _409
REMARK  165  A    between atoms: _409  and  _410
REMARK  166  A    between atoms: _410  and  _411
REMARK  167  A    between atoms: _414  and  _416
REMARK  168  A    between atoms: _416  and  _417
REMARK  169  A    between atoms: _416  and  _419
REMARK  170  A    between atoms: _419  and  _420
REMARK  171  A    between atoms: _430  and  _432
REMARK  172  A    between atoms: _432  and  _433
REMARK  173  A    between atoms: _432  and  _435
REMARK  174  A    between atoms: _435  and  _436
REMARK  175  A    between atoms: _436  and  _437
REMARK  176  A    between atoms: _442  and  _444
REMARK  177  A    between atoms: _444  and  _445
REMARK  178  A    between atoms: _444  and  _447
REMARK  179  A    between atoms: _449  and  _451
REMARK  180  A    between atoms: _451  and  _452
REMARK  181  A    between atoms: _454  and  _456
REMARK  182  A    between atoms: _456  and  _457
REMARK  183  A    between atoms: _456  and  _459
REMARK  184  A    between atoms: _459  and  _460
REMARK  185  A    between atoms: _463  and  _465
REMARK  186  A    between atoms: _465  and  _466
REMARK  187  A    between atoms: _465  and  _468
REMARK  188  A    between atoms: _471  and  _473
REMARK  189  A    between atoms: _473  and  _474
REMARK  190  A    between atoms: _473  and  _476
REMARK  191  A    between atoms: _476  and  _477
REMARK  192  A    between atoms: _477  and  _478
REMARK  193  A    between atoms: _483  and  _485
REMARK  194  A    between atoms: _485  and  _486
REMARK  195  A    between atoms: _485  and  _488
REMARK  196  A    between atoms: _488  and  _489
REMARK  197  A    between atoms: _492  and  _494
REMARK  198  A    between atoms: _494  and  _495
REMARK  199  A    between atoms: _494  and  _497
REMARK  200  A    between atoms: _497  and  _498
REMARK  201  A    between atoms: _501  and  _503
REMARK  202  A    between atoms: _503  and  _504
REMARK  203  A    between atoms: _503  and  _506
REMARK  204  A    between atoms: _506  and  _507
REMARK  205  A    between atoms: _507  and  _508
REMARK  206  A    between atoms: _510  and  _512
REMARK  207  A    between atoms: _512  and  _513
REMARK  208  A    between atoms: _512  and  _515
REMARK  209  A    between atoms: _515  and  _516
REMARK  210  A    between atoms: _519  and  _521
REMARK  211  A    between atoms: _521  and  _522
REMARK  212  A    between atoms: _521  and  _524
REMARK  213  A    between atoms: _524  and  _525
REMARK  214  A    between atoms: _526  and  ZN_632
REMARK  215  A    between atoms: _530  and  _532
REMARK  216  A    between atoms: _532  and  _533
REMARK  217  A    between atoms: _532  and  _535
REMARK  218  A    between atoms: _535  and  _536
REMARK  219  A    between atoms: _536  and  _537
REMARK  220  A    between atoms: _537  and  _538
REMARK  221  A    between atoms: _547  and  _549
REMARK  222  A    between atoms: _549  and  _550
REMARK  223  A    between atoms: _553  and  _555
REMARK  224  A    between atoms: _555  and  _556
REMARK  225  A    between atoms: _555  and  _558
REMARK  226  A    between atoms: _558  and  _559
REMARK  227  A    between atoms: _562  and  _564
REMARK  228  A    between atoms: _564  and  _565
REMARK  229  A    between atoms: _564  and  _567
REMARK  230  A    between atoms: _567  and  _568
REMARK  231  A    between atoms: _571  and  _573
REMARK  232  A    between atoms: _573  and  _574
REMARK  233  A    between atoms: _576  and  _578
REMARK  234  A    between atoms: _578  and  _579
REMARK  235  A    between atoms: _578  and  _581
REMARK  236  A    between atoms: _581  and  _582
REMARK  237  A    between atoms: _584  and  _586
REMARK  238  A    between atoms: _586  and  _587
REMARK  239  A    between atoms: _586  and  _589
REMARK  240  A    between atoms: _589  and  _590
REMARK  241  A    between atoms: _590  and  _591
REMARK  242  A    between atoms: _593  and  _595
REMARK  243  A    between atoms: _595  and  _596
REMARK  244  A    between atoms: _595  and  _598
REMARK  245  A    between atoms: _598  and  _599
REMARK  246  A    between atoms: _599  and  _600
REMARK  247  A    between atoms: _603  and  _605
REMARK  248  A    between atoms: _605  and  _606
REMARK  249  A    between atoms: _605  and  _608
REMARK  250  A    between atoms: _608  and  _609
REMARK  251  A    between atoms: _609  and  _610
REMARK  252  A    between atoms: _610  and  _611
REMARK  253  A    between atoms: _620  and  _622
REMARK  254  A    between atoms: _622  and  _623
REMARK  255  A    between atoms: _622  and  _625
REMARK  256  A    between atoms: _625  and  _626
REMARK                            x       y       z     vdW  Elec       q    Type
REMARK                         _______ _______ _______ _____ _____    ______ ____
ROOT
ATOM      1  O   HOH     1     -18.590 -44.821  18.475  0.00  0.00    +0.000 OA
ENDROOT
TORSDOF 0
REMARK  Name = ../refined-set-2016/4hwp/4hwp_pocket.pdb
REMARK  256 active torsions:
REMARK  status: ('A' for Active; 'I' for Inactive)
REMARK    1  A    between atoms: _1  and  _3
REMARK    2  A    between atoms: _3  and  _4
REMARK    3  A    between atoms: _6  and  _8
REMARK    4  A    between atoms: _8  and  _9
REMARK    5  A    between atoms: _8  and  _11
REMARK    6  A    between atoms: _11  and  _12
REMARK    7  A    between atoms: _17  and  _19
REMARK    8  A    between atoms: _19  and  _20
REMARK    9  A    between atoms: _19  and  _22
REMARK   10  A    between atoms: _22  and  _23
REMARK   11  A    between atoms: _28  and  _29
REMARK   12  A    between atoms: _31  and  _33
REMARK   13  A    between atoms: _33  and  _34
REMARK   14  A    between atoms: _38  and  _39
REMARK   15  A    between atoms: _44  and  _46
REMARK   16  A    between atoms: _46  and  _47
REMARK   17  A    between atoms: _46  and  _49
REMARK   18  A    between atoms: _49  and  _50
REMARK   19  A    between atoms: _50  and  _51
REMARK   20  A    between atoms: _53  and  _55
REMARK   21  A    between atoms: _55  and  _56
REMARK   22  A    between atoms: _55  and  _58
REMARK   23  A    between atoms: _58  and  _59
REMARK   24  A    between atoms: _64  and  _66
REMARK   25  A    between atoms: _66  and  _67
REMARK   26  A    between atoms: _66  and  _69
REMARK   27  A    between atoms: _69  and  _70
REMARK   28  A    between atoms: _70  and  ZN_632
REMARK   29  A    between atoms: _72  and  _73
REMARK   30  A    between atoms: _78  and  _80
REMARK   31  A    between atoms: _80  and  _81
REMARK   32  A    between atoms: _80  and  _83
REMARK   33  A    between atoms: _83  and  _84
REMARK   34  A    between atoms: _89  and  _91
REMARK   35  A    between atoms: _91  and  _92
REMARK   36  A    between atoms: _91  and  _94
REMARK   37  A    between atoms: _96  and  _98
REMARK   38  A    between atoms: _98  and  _99
REMARK   39  A    between atoms: _98  and  _101
REMARK   40  A    between atoms: _101  and  _102
REMARK   41  A    between atoms: _107  and  _109
REMARK   42  A    between atoms: _109  and  _110
REMARK   43  A    between atoms: _109  and  _112
REMARK   44  A    between atoms: _112  and  _113
REMARK   45  A    between atoms: _113  and  _114
REMARK   46  A    between atoms: _114  and  _115
REMARK   47  A    between atoms: _124  and  _126
REMARK   48  A    between atoms: _126  and  _127
REMARK   49  A    between atoms: _126  and  _129
REMARK   50  A    between atoms: _129  and  _130
REMARK   51  A    between atoms: _135  and  _137
REMARK   52  A    between atoms: _137  and  _138
REMARK   53  A    between atoms: _137  and  _140
REMARK   54  A    between atoms: _140  and  _141
REMARK   55  A    between atoms: _141  and  _142
REMARK   56  A    between atoms: _146  and  _147
REMARK   57  A    between atoms: _152  and  _154
REMARK   58  A    between atoms: _154  and  _155
REMARK   59  A    between atoms: _154  and  _157
REMARK   60  A    between atoms: _157  and  _158
REMARK   61  A    between atoms: _160  and  _162
REMARK   62  A    between atoms: _162  and  _163
REMARK   63  A    between atoms: _162  and  _165
REMARK   64  A    between atoms: _165  and  _166
REMARK   65  A    between atoms: _169  and  _171
REMARK   66  A    between atoms: _171  and  _172
REMARK   67  A    between atoms: _171  and  _174
REMARK   68  A    between atoms: _174  and  _175
REMARK   69  A    between atoms: _180  and  _182
REMARK   70  A    between atoms: _182  and  _183
REMARK   71  A    between atoms: _185  and  _187
REMARK   72  A    between atoms: _187  and  _188
REMARK   73  A    between atoms: _187  and  _190
REMARK   74  A    between atoms: _190  and  _191
REMARK   75  A    between atoms: _194  and  _196
REMARK   76  A    between atoms: _196  and  _197
REMARK   77  A    between atoms: _196  and  _199
REMARK   78  A    between atoms: _199  and  _200
REMARK   79  A    between atoms: _200  and  _201
REMARK   80  A    between atoms: _203  and  _205
REMARK   81  A    between atoms: _205  and  _206
REMARK   82  A    between atoms: _205  and  _208
REMARK   83  A    between atoms: _208  and  _209
REMARK   84  A    between atoms: _209  and  _210
REMARK   85  A    between atoms: _210  and  _211
REMARK   86  A    between atoms: _220  and  _222
REMARK   87  A    between atoms: _222  and  _223
REMARK   88  A    between atoms: _222  and  _225
REMARK   89  A    between atoms: _228  and  _230
REMARK   90  A    between atoms: _230  and  _231
REMARK   91  A    between atoms: _230  and  _233
REMARK   92  A    between atoms: _233  and  _234
REMARK   93  A    between atoms: _234  and  _235
REMARK   94  A    between atoms: _235  and  _236
REMARK   95  A    between atoms: _245  and  _247
REMARK   96  A    between atoms: _247  and  _248
REMARK   97  A    between atoms: _250  and  _252
REMARK   98  A    between atoms: _252  and  _253
REMARK   99  A    between atoms: _252  and  _255
REMARK  100  A    between atoms: _255  and  _256
REMARK  101  A    between atoms: _262  and  _264
REMARK  102  A    between atoms: _264  and  _265
REMARK  103  A    between atoms: _264  and  _267
REMARK  104  A    between atoms: _267  and  _268
REMARK  105  A    between atoms: _271  and  _273
REMARK  106  A    between atoms: _273  and  _274
REMARK  107  A    between atoms: _273  and  _276
REMARK  108  A    between atoms: _276  and  _277
REMARK  109  A    between atoms: _277  and  _278
REMARK  110  A    between atoms: _283  and  _285
REMARK  111  A    between atoms: _285  and  _286
REMARK  112  A    between atoms: _285  and  _288
REMARK  113  A    between atoms: _288  and  _289
REMARK  114  A    between atoms: _292  and  _294
REMARK  115  A    between atoms: _294  and  _295
REMARK  116  A    between atoms: _294  and  _297
REMARK  117  A    between atoms: _297  and  _298
REMARK  118  A    between atoms: _301  and  _303
REMARK  119  A    between atoms: _303  and  _304
REMARK  120  A    between atoms: _307  and  _309
REMARK  121  A    between atoms: _309  and  _310
REMARK  122  A    between atoms: _309  and  _312
REMARK  123  A    between atoms: _312  and  _313
REMARK  124  A    between atoms: _317  and  ZN_632
REMARK  125  A    between atoms: _318  and  _320
REMARK  126  A    between atoms: _320  and  _321
REMARK  127  A    between atoms: _320  and  _323
REMARK  128  A    between atoms: _323  and  _324
REMARK  129  A    between atoms: _327  and  _329
REMARK  130  A    between atoms: _329  and  _330
REMARK  131  A    between atoms: _329  and  _332
REMARK  132  A    between atoms: _332  and  _333
REMARK  133  A    between atoms: _335  and  _337
REMARK  134  A    between atoms: _337  and  _338
REMARK  135  A    between atoms: _337  and  _340
REMARK  136  A    between atoms: _340  and  _341
REMARK  137  A    between atoms: _341  and  _342
REMARK  138  A    between atoms: _345  and  _347
REMARK  139  A    between atoms: _347  and  _348
REMARK  140  A    between atoms: _350  and  _352
REMARK  141  A    between atoms: _352  and  _353
REMARK  142  A    between atoms: _356  and  _358
REMARK  143  A    between atoms: _358  and  _359
REMARK  144  A    between atoms: _358  and  _361
REMARK  145  A    between atoms: _361  and  _362
REMARK  146  A    between atoms: _368  and  _370
REMARK  147  A    between atoms: _370  and  _371
REMARK  148  A    between atoms: _370  and  _373
REMARK  149  A    between atoms: _373  and  _374
REMARK  150  A    between atoms: _379  and  _380
REMARK  151  A    between atoms: _382  and  _384
REMARK  152  A    between atoms: _384  and  _385
REMARK  153  A    between atoms: _384  and  _387
REMARK  154  A    between atoms: _387  and  _388
REMARK  155  A    between atoms: _388  and  _389
REMARK  156  A    between atoms: _389  and  _390
REMARK  157  A    between atoms: _390  and  _391
REMARK  158  A    between atoms: _395  and  _397
REMARK  159  A    between atoms: _397  and  _398
REMARK  160  A    between atoms: _397  and  _400
REMARK  161  A    between atoms: _400  and  _401
REMARK  162  A    between atoms: _404  and  _406
REMARK  163  A    between atoms: _406  and  _407
REMARK  164  A    between atoms: _406  and  _409
REMARK  165  A    between atoms: _409  and  _410
REMARK  166  A    between atoms: _410  and  _411
REMARK  167  A    between atoms: _414  and  _416
REMARK  168  A    between atoms: _416  and  _417
REMARK  169  A    between atoms: _416  and  _419
REMARK  170  A    between atoms: _419  and  _420
REMARK  171  A    between atoms: _430  and  _432
REMARK  172  A    between atoms: _432  and  _433
REMARK  173  A    between atoms: _432  and  _435
REMARK  174  A    between atoms: _435  and  _436
REMARK  175  A    between atoms: _436  and  _437
REMARK  176  A    between atoms: _442  and  _444
REMARK  177  A    between atoms: _444  and  _445
REMARK  178  A    between atoms: _444  and  _447
REMARK  179  A    between atoms: _449  and  _451
REMARK  180  A    between atoms: _451  and  _452
REMARK  181  A    between atoms: _454  and  _456
REMARK  182  A    between atoms: _456  and  _457
REMARK  183  A    between atoms: _456  and  _459
REMARK  184  A    between atoms: _459  and  _460
REMARK  185  A    between atoms: _463  and  _465
REMARK  186  A    between atoms: _465  and  _466
REMARK  187  A    between atoms: _465  and  _468
REMARK  188  A    between atoms: _471  and  _473
REMARK  189  A    between atoms: _473  and  _474
REMARK  190  A    between atoms: _473  and  _476
REMARK  191  A    between atoms: _476  and  _477
REMARK  192  A    between atoms: _477  and  _478
REMARK  193  A    between atoms: _483  and  _485
REMARK  194  A    between atoms: _485  and  _486
REMARK  195  A    between atoms: _485  and  _488
REMARK  196  A    between atoms: _488  and  _489
REMARK  197  A    between atoms: _492  and  _494
REMARK  198  A    between atoms: _494  and  _495
REMARK  199  A    between atoms: _494  and  _497
REMARK  200  A    between atoms: _497  and  _498
REMARK  201  A    between atoms: _501  and  _503
REMARK  202  A    between atoms: _503  and  _504
REMARK  203  A    between atoms: _503  and  _506
REMARK  204  A    between atoms: _506  and  _507
REMARK  205  A    between atoms: _507  and  _508
REMARK  206  A    between atoms: _510  and  _512
REMARK  207  A    between atoms: _512  and  _513
REMARK  208  A    between atoms: _512  and  _515
REMARK  209  A    between atoms: _515  and  _516
REMARK  210  A    between atoms: _519  and  _521
REMARK  211  A    between atoms: _521  and  _522
REMARK  212  A    between atoms: _521  and  _524
REMARK  213  A    between atoms: _524  and  _525
REMARK  214  A    between atoms: _526  and  ZN_632
REMARK  215  A    between atoms: _530  and  _532
REMARK  216  A    between atoms: _532  and  _533
REMARK  217  A    between atoms: _532  and  _535
REMARK  218  A    between atoms: _535  and  _536
REMARK  219  A    between atoms: _536  and  _537
REMARK  220  A    between atoms: _537  and  _538
REMARK  221  A    between atoms: _547  and  _549
REMARK  222  A    between atoms: _549  and  _550
REMARK  223  A    between atoms: _553  and  _555
REMARK  224  A    between atoms: _555  and  _556
REMARK  225  A    between atoms: _555  and  _558
REMARK  226  A    between atoms: _558  and  _559
REMARK  227  A    between atoms: _562  and  _564
REMARK  228  A    between atoms: _564  and  _565
REMARK  229  A    between atoms: _564  and  _567
REMARK  230  A    between atoms: _567  and  _568
REMARK  231  A    between atoms: _571  and  _573
REMARK  232  A    between atoms: _573  and  _574
REMARK  233  A    between atoms: _576  and  _578
REMARK  234  A    between atoms: _578  and  _579
REMARK  235  A    between atoms: _578  and  _581
REMARK  236  A    between atoms: _581  and  _582
REMARK  237  A    between atoms: _584  and  _586
REMARK  238  A    between atoms: _586  and  _587
REMARK  239  A    between atoms: _586  and  _589
REMARK  240  A    between atoms: _589  and  _590
REMARK  241  A    between atoms: _590  and  _591
REMARK  242  A    between atoms: _593  and  _595
REMARK  243  A    between atoms: _595  and  _596
REMARK  244  A    between atoms: _595  and  _598
REMARK  245  A    between atoms: _598  and  _599
REMARK  246  A    between atoms: _599  and  _600
REMARK  247  A    between atoms: _603  and  _605
REMARK  248  A    between atoms: _605  and  _606
REMARK  249  A    between atoms: _605  and  _608
REMARK  250  A    between atoms: _608  and  _609
REMARK  251  A    between atoms: _609  and  _610
REMARK  252  A    between atoms: _610  and  _611
REMARK  253  A    between atoms: _620  and  _622
REMARK  254  A    between atoms: _622  and  _623
REMARK  255  A    between atoms: _622  and  _625
REMARK  256  A    between atoms: _625  and  _626
REMARK                            x       y       z     vdW  Elec       q    Type
REMARK                         _______ _______ _______ _____ _____    ______ ____
ROOT
ATOM      1  O   HOH     1     -17.391 -38.971  12.490  0.00  0.00    +0.000 OA
ENDROOT
TORSDOF 0
REMARK  Name = ../refined-set-2016/4hwp/4hwp_pocket.pdb
REMARK  256 active torsions:
REMARK  status: ('A' for Active; 'I' for Inactive)
REMARK    1  A    between atoms: _1  and  _3
REMARK    2  A    between atoms: _3  and  _4
REMARK    3  A    between atoms: _6  and  _8
REMARK    4  A    between atoms: _8  and  _9
REMARK    5  A    between atoms: _8  and  _11
REMARK    6  A    between atoms: _11  and  _12
REMARK    7  A    between atoms: _17  and  _19
REMARK    8  A    between atoms: _19  and  _20
REMARK    9  A    between atoms: _19  and  _22
REMARK   10  A    between atoms: _22  and  _23
REMARK   11  A    between atoms: _28  and  _29
REMARK   12  A    between atoms: _31  and  _33
REMARK   13  A    between atoms: _33  and  _34
REMARK   14  A    between atoms: _38  and  _39
REMARK   15  A    between atoms: _44  and  _46
REMARK   16  A    between atoms: _46  and  _47
REMARK   17  A    between atoms: _46  and  _49
REMARK   18  A    between atoms: _49  and  _50
REMARK   19  A    between atoms: _50  and  _51
REMARK   20  A    between atoms: _53  and  _55
REMARK   21  A    between atoms: _55  and  _56
REMARK   22  A    between atoms: _55  and  _58
REMARK   23  A    between atoms: _58  and  _59
REMARK   24  A    between atoms: _64  and  _66
REMARK   25  A    between atoms: _66  and  _67
REMARK   26  A    between atoms: _66  and  _69
REMARK   27  A    between atoms: _69  and  _70
REMARK   28  A    between atoms: _70  and  ZN_632
REMARK   29  A    between atoms: _72  and  _73
REMARK   30  A    between atoms: _78  and  _80
REMARK   31  A    between atoms: _80  and  _81
REMARK   32  A    between atoms: _80  and  _83
REMARK   33  A    between atoms: _83  and  _84
REMARK   34  A    between atoms: _89  and  _91
REMARK   35  A    between atoms: _91  and  _92
REMARK   36  A    between atoms: _91  and  _94
REMARK   37  A    between atoms: _96  and  _98
REMARK   38  A    between atoms: _98  and  _99
REMARK   39  A    between atoms: _98  and  _101
REMARK   40  A    between atoms: _101  and  _102
REMARK   41  A    between atoms: _107  and  _109
REMARK   42  A    between atoms: _109  and  _110
REMARK   43  A    between atoms: _109  and  _112
REMARK   44  A    between atoms: _112  and  _113
REMARK   45  A    between atoms: _113  and  _114
REMARK   46  A    between atoms: _114  and  _115
REMARK   47  A    between atoms: _124  and  _126
REMARK   48  A    between atoms: _126  and  _127
REMARK   49  A    between atoms: _126  and  _129
REMARK   50  A    between atoms: _129  and  _130
REMARK   51  A    between atoms: _135  and  _137
REMARK   52  A    between atoms: _137  and  _138
REMARK   53  A    between atoms: _137  and  _140
REMARK   54  A    between atoms: _140  and  _141
REMARK   55  A    between atoms: _141  and  _142
REMARK   56  A    between atoms: _146  and  _147
REMARK   57  A    between atoms: _152  and  _154
REMARK   58  A    between atoms: _154  and  _155
REMARK   59  A    between atoms: _154  and  _157
REMARK   60  A    between atoms: _157  and  _158
REMARK   61  A    between atoms: _160  and  _162
REMARK   62  A    between atoms: _162  and  _163
REMARK   63  A    between atoms: _162  and  _165
REMARK   64  A    between atoms: _165  and  _166
REMARK   65  A    between atoms: _169  and  _171
REMARK   66  A    between atoms: _171  and  _172
REMARK   67  A    between atoms: _171  and  _174
REMARK   68  A    between atoms: _174  and  _175
REMARK   69  A    between atoms: _180  and  _182
REMARK   70  A    between atoms: _182  and  _183
REMARK   71  A    between atoms: _185  and  _187
REMARK   72  A    between atoms: _187  and  _188
REMARK   73  A    between atoms: _187  and  _190
REMARK   74  A    between atoms: _190  and  _191
REMARK   75  A    between atoms: _194  and  _196
REMARK   76  A    between atoms: _196  and  _197
REMARK   77  A    between atoms: _196  and  _199
REMARK   78  A    between atoms: _199  and  _200
REMARK   79  A    between atoms: _200  and  _201
REMARK   80  A    between atoms: _203  and  _205
REMARK   81  A    between atoms: _205  and  _206
REMARK   82  A    between atoms: _205  and  _208
REMARK   83  A    between atoms: _208  and  _209
REMARK   84  A    between atoms: _209  and  _210
REMARK   85  A    between atoms: _210  and  _211
REMARK   86  A    between atoms: _220  and  _222
REMARK   87  A    between atoms: _222  and  _223
REMARK   88  A    between atoms: _222  and  _225
REMARK   89  A    between atoms: _228  and  _230
REMARK   90  A    between atoms: _230  and  _231
REMARK   91  A    between atoms: _230  and  _233
REMARK   92  A    between atoms: _233  and  _234
REMARK   93  A    between atoms: _234  and  _235
REMARK   94  A    between atoms: _235  and  _236
REMARK   95  A    between atoms: _245  and  _247
REMARK   96  A    between atoms: _247  and  _248
REMARK   97  A    between atoms: _250  and  _252
REMARK   98  A    between atoms: _252  and  _253
REMARK   99  A    between atoms: _252  and  _255
REMARK  100  A    between atoms: _255  and  _256
REMARK  101  A    between atoms: _262  and  _264
REMARK  102  A    between atoms: _264  and  _265
REMARK  103  A    between atoms: _264  and  _267
REMARK  104  A    between atoms: _267  and  _268
REMARK  105  A    between atoms: _271  and  _273
REMARK  106  A    between atoms: _273  and  _274
REMARK  107  A    between atoms: _273  and  _276
REMARK  108  A    between atoms: _276  and  _277
REMARK  109  A    between atoms: _277  and  _278
REMARK  110  A    between atoms: _283  and  _285
REMARK  111  A    between atoms: _285  and  _286
REMARK  112  A    between atoms: _285  and  _288
REMARK  113  A    between atoms: _288  and  _289
REMARK  114  A    between atoms: _292  and  _294
REMARK  115  A    between atoms: _294  and  _295
REMARK  116  A    between atoms: _294  and  _297
REMARK  117  A    between atoms: _297  and  _298
REMARK  118  A    between atoms: _301  and  _303
REMARK  119  A    between atoms: _303  and  _304
REMARK  120  A    between atoms: _307  and  _309
REMARK  121  A    between atoms: _309  and  _310
REMARK  122  A    between atoms: _309  and  _312
REMARK  123  A    between atoms: _312  and  _313
REMARK  124  A    between atoms: _317  and  ZN_632
REMARK  125  A    between atoms: _318  and  _320
REMARK  126  A    between atoms: _320  and  _321
REMARK  127  A    between atoms: _320  and  _323
REMARK  128  A    between atoms: _323  and  _324
REMARK  129  A    between atoms: _327  and  _329
REMARK  130  A    between atoms: _329  and  _330
REMARK  131  A    between atoms: _329  and  _332
REMARK  132  A    between atoms: _332  and  _333
REMARK  133  A    between atoms: _335  and  _337
REMARK  134  A    between atoms: _337  and  _338
REMARK  135  A    between atoms: _337  and  _340
REMARK  136  A    between atoms: _340  and  _341
REMARK  137  A    between atoms: _341  and  _342
REMARK  138  A    between atoms: _345  and  _347
REMARK  139  A    between atoms: _347  and  _348
REMARK  140  A    between atoms: _350  and  _352
REMARK  141  A    between atoms: _352  and  _353
REMARK  142  A    between atoms: _356  and  _358
REMARK  143  A    between atoms: _358  and  _359
REMARK  144  A    between atoms: _358  and  _361
REMARK  145  A    between atoms: _361  and  _362
REMARK  146  A    between atoms: _368  and  _370
REMARK  147  A    between atoms: _370  and  _371
REMARK  148  A    between atoms: _370  and  _373
REMARK  149  A    between atoms: _373  and  _374
REMARK  150  A    between atoms: _379  and  _380
REMARK  151  A    between atoms: _382  and  _384
REMARK  152  A    between atoms: _384  and  _385
REMARK  153  A    between atoms: _384  and  _387
REMARK  154  A    between atoms: _387  and  _388
REMARK  155  A    between atoms: _388  and  _389
REMARK  156  A    between atoms: _389  and  _390
REMARK  157  A    between atoms: _390  and  _391
REMARK  158  A    between atoms: _395  and  _397
REMARK  159  A    between atoms: _397  and  _398
REMARK  160  A    between atoms: _397  and  _400
REMARK  161  A    between atoms: _400  and  _401
REMARK  162  A    between atoms: _404  and  _406
REMARK  163  A    between atoms: _406  and  _407
REMARK  164  A    between atoms: _406  and  _409
REMARK  165  A    between atoms: _409  and  _410
REMARK  166  A    between atoms: _410  and  _411
REMARK  167  A    between atoms: _414  and  _416
REMARK  168  A    between atoms: _416  and  _417
REMARK  169  A    between atoms: _416  and  _419
REMARK  170  A    between atoms: _419  and  _420
REMARK  171  A    between atoms: _430  and  _432
REMARK  172  A    between atoms: _432  and  _433
REMARK  173  A    between atoms: _432  and  _435
REMARK  174  A    between atoms: _435  and  _436
REMARK  175  A    between atoms: _436  and  _437
REMARK  176  A    between atoms: _442  and  _444
REMARK  177  A    between atoms: _444  and  _445
REMARK  178  A    between atoms: _444  and  _447
REMARK  179  A    between atoms: _449  and  _451
REMARK  180  A    between atoms: _451  and  _452
REMARK  181  A    between atoms: _454  and  _456
REMARK  182  A    between atoms: _456  and  _457
REMARK  183  A    between atoms: _456  and  _459
REMARK  184  A    between atoms: _459  and  _460
REMARK  185  A    between atoms: _463  and  _465
REMARK  186  A    between atoms: _465  and  _466
REMARK  187  A    between atoms: _465  and  _468
REMARK  188  A    between atoms: _471  and  _473
REMARK  189  A    between atoms: _473  and  _474
REMARK  190  A    between atoms: _473  and  _476
REMARK  191  A    between atoms: _476  and  _477
REMARK  192  A    between atoms: _477  and  _478
REMARK  193  A    between atoms: _483  and  _485
REMARK  194  A    between atoms: _485  and  _486
REMARK  195  A    between atoms: _485  and  _488
REMARK  196  A    between atoms: _488  and  _489
REMARK  197  A    between atoms: _492  and  _494
REMARK  198  A    between atoms: _494  and  _495
REMARK  199  A    between atoms: _494  and  _497
REMARK  200  A    between atoms: _497  and  _498
REMARK  201  A    between atoms: _501  and  _503
REMARK  202  A    between atoms: _503  and  _504
REMARK  203  A    between atoms: _503  and  _506
REMARK  204  A    between atoms: _506  and  _507
REMARK  205  A    between atoms: _507  and  _508
REMARK  206  A    between atoms: _510  and  _512
REMARK  207  A    between atoms: _512  and  _513
REMARK  208  A    between atoms: _512  and  _515
REMARK  209  A    between atoms: _515  and  _516
REMARK  210  A    between atoms: _519  and  _521
REMARK  211  A    between atoms: _521  and  _522
REMARK  212  A    between atoms: _521  and  _524
REMARK  213  A    between atoms: _524  and  _525
REMARK  214  A    between atoms: _526  and  ZN_632
REMARK  215  A    between atoms: _530  and  _532
REMARK  216  A    between atoms: _532  and  _533
REMARK  217  A    between atoms: _532  and  _535
REMARK  218  A    between atoms: _535  and  _536
REMARK  219  A    between atoms: _536  and  _537
REMARK  220  A    between atoms: _537  and  _538
REMARK  221  A    between atoms: _547  and  _549
REMARK  222  A    between atoms: _549  and  _550
REMARK  223  A    between atoms: _553  and  _555
REMARK  224  A    between atoms: _555  and  _556
REMARK  225  A    between atoms: _555  and  _558
REMARK  226  A    between atoms: _558  and  _559
REMARK  227  A    between atoms: _562  and  _564
REMARK  228  A    between atoms: _564  and  _565
REMARK  229  A    between atoms: _564  and  _567
REMARK  230  A    between atoms: _567  and  _568
REMARK  231  A    between atoms: _571  and  _573
REMARK  232  A    between atoms: _573  and  _574
REMARK  233  A    between atoms: _576  and  _578
REMARK  234  A    between atoms: _578  and  _579
REMARK  235  A    between atoms: _578  and  _581
REMARK  236  A    between atoms: _581  and  _582
REMARK  237  A    between atoms: _584  and  _586
REMARK  238  A    between atoms: _586  and  _587
REMARK  239  A    between atoms: _586  and  _589
REMARK  240  A    between atoms: _589  and  _590
REMARK  241  A    between atoms: _590  and  _591
REMARK  242  A    between atoms: _593  and  _595
REMARK  243  A    between atoms: _595  and  _596
REMARK  244  A    between atoms: _595  and  _598
REMARK  245  A    between atoms: _598  and  _599
REMARK  246  A    between atoms: _599  and  _600
REMARK  247  A    between atoms: _603  and  _605
REMARK  248  A    between atoms: _605  and  _606
REMARK  249  A    between atoms: _605  and  _608
REMARK  250  A    between atoms: _608  and  _609
REMARK  251  A    between atoms: _609  and  _610
REMARK  252  A    between atoms: _610  and  _611
REMARK  253  A    between atoms: _620  and  _622
REMARK  254  A    between atoms: _622  and  _623
REMARK  255  A    between atoms: _622  and  _625
REMARK  256  A    between atoms: _625  and  _626
REMARK                            x       y       z     vdW  Elec       q    Type
REMARK                         _______ _______ _______ _____ _____    ______ ____
ROOT
ATOM      1  O   HOH     1     -10.918 -43.114  12.807  0.00  0.00    +0.000 OA
ENDROOT
TORSDOF 0
REMARK  Name = ../refined-set-2016/4hwp/4hwp_pocket.pdb
REMARK  256 active torsions:
REMARK  status: ('A' for Active; 'I' for Inactive)
REMARK    1  A    between atoms: _1  and  _3
REMARK    2  A    between atoms: _3  and  _4
REMARK    3  A    between atoms: _6  and  _8
REMARK    4  A    between atoms: _8  and  _9
REMARK    5  A    between atoms: _8  and  _11
REMARK    6  A    between atoms: _11  and  _12
REMARK    7  A    between atoms: _17  and  _19
REMARK    8  A    between atoms: _19  and  _20
REMARK    9  A    between atoms: _19  and  _22
REMARK   10  A    between atoms: _22  and  _23
REMARK   11  A    between atoms: _28  and  _29
REMARK   12  A    between atoms: _31  and  _33
REMARK   13  A    between atoms: _33  and  _34
REMARK   14  A    between atoms: _38  and  _39
REMARK   15  A    between atoms: _44  and  _46
REMARK   16  A    between atoms: _46  and  _47
REMARK   17  A    between atoms: _46  and  _49
REMARK   18  A    between atoms: _49  and  _50
REMARK   19  A    between atoms: _50  and  _51
REMARK   20  A    between atoms: _53  and  _55
REMARK   21  A    between atoms: _55  and  _56
REMARK   22  A    between atoms: _55  and  _58
REMARK   23  A    between atoms: _58  and  _59
REMARK   24  A    between atoms: _64  and  _66
REMARK   25  A    between atoms: _66  and  _67
REMARK   26  A    between atoms: _66  and  _69
REMARK   27  A    between atoms: _69  and  _70
REMARK   28  A    between atoms: _70  and  ZN_632
REMARK   29  A    between atoms: _72  and  _73
REMARK   30  A    between atoms: _78  and  _80
REMARK   31  A    between atoms: _80  and  _81
REMARK   32  A    between atoms: _80  and  _83
REMARK   33  A    between atoms: _83  and  _84
REMARK   34  A    between atoms: _89  and  _91
REMARK   35  A    between atoms: _91  and  _92
REMARK   36  A    between atoms: _91  and  _94
REMARK   37  A    between atoms: _96  and  _98
REMARK   38  A    between atoms: _98  and  _99
REMARK   39  A    between atoms: _98  and  _101
REMARK   40  A    between atoms: _101  and  _102
REMARK   41  A    between atoms: _107  and  _109
REMARK   42  A    between atoms: _109  and  _110
REMARK   43  A    between atoms: _109  and  _112
REMARK   44  A    between atoms: _112  and  _113
REMARK   45  A    between atoms: _113  and  _114
REMARK   46  A    between atoms: _114  and  _115
REMARK   47  A    between atoms: _124  and  _126
REMARK   48  A    between atoms: _126  and  _127
REMARK   49  A    between atoms: _126  and  _129
REMARK   50  A    between atoms: _129  and  _130
REMARK   51  A    between atoms: _135  and  _137
REMARK   52  A    between atoms: _137  and  _138
REMARK   53  A    between atoms: _137  and  _140
REMARK   54  A    between atoms: _140  and  _141
REMARK   55  A    between atoms: _141  and  _142
REMARK   56  A    between atoms: _146  and  _147
REMARK   57  A    between atoms: _152  and  _154
REMARK   58  A    between atoms: _154  and  _155
REMARK   59  A    between atoms: _154  and  _157
REMARK   60  A    between atoms: _157  and  _158
REMARK   61  A    between atoms: _160  and  _162
REMARK   62  A    between atoms: _162  and  _163
REMARK   63  A    between atoms: _162  and  _165
REMARK   64  A    between atoms: _165  and  _166
REMARK   65  A    between atoms: _169  and  _171
REMARK   66  A    between atoms: _171  and  _172
REMARK   67  A    between atoms: _171  and  _174
REMARK   68  A    between atoms: _174  and  _175
REMARK   69  A    between atoms: _180  and  _182
REMARK   70  A    between atoms: _182  and  _183
REMARK   71  A    between atoms: _185  and  _187
REMARK   72  A    between atoms: _187  and  _188
REMARK   73  A    between atoms: _187  and  _190
REMARK   74  A    between atoms: _190  and  _191
REMARK   75  A    between atoms: _194  and  _196
REMARK   76  A    between atoms: _196  and  _197
REMARK   77  A    between atoms: _196  and  _199
REMARK   78  A    between atoms: _199  and  _200
REMARK   79  A    between atoms: _200  and  _201
REMARK   80  A    between atoms: _203  and  _205
REMARK   81  A    between atoms: _205  and  _206
REMARK   82  A    between atoms: _205  and  _208
REMARK   83  A    between atoms: _208  and  _209
REMARK   84  A    between atoms: _209  and  _210
REMARK   85  A    between atoms: _210  and  _211
REMARK   86  A    between atoms: _220  and  _222
REMARK   87  A    between atoms: _222  and  _223
REMARK   88  A    between atoms: _222  and  _225
REMARK   89  A    between atoms: _228  and  _230
REMARK   90  A    between atoms: _230  and  _231
REMARK   91  A    between atoms: _230  and  _233
REMARK   92  A    between atoms: _233  and  _234
REMARK   93  A    between atoms: _234  and  _235
REMARK   94  A    between atoms: _235  and  _236
REMARK   95  A    between atoms: _245  and  _247
REMARK   96  A    between atoms: _247  and  _248
REMARK   97  A    between atoms: _250  and  _252
REMARK   98  A    between atoms: _252  and  _253
REMARK   99  A    between atoms: _252  and  _255
REMARK  100  A    between atoms: _255  and  _256
REMARK  101  A    between atoms: _262  and  _264
REMARK  102  A    between atoms: _264  and  _265
REMARK  103  A    between atoms: _264  and  _267
REMARK  104  A    between atoms: _267  and  _268
REMARK  105  A    between atoms: _271  and  _273
REMARK  106  A    between atoms: _273  and  _274
REMARK  107  A    between atoms: _273  and  _276
REMARK  108  A    between atoms: _276  and  _277
REMARK  109  A    between atoms: _277  and  _278
REMARK  110  A    between atoms: _283  and  _285
REMARK  111  A    between atoms: _285  and  _286
REMARK  112  A    between atoms: _285  and  _288
REMARK  113  A    between atoms: _288  and  _289
REMARK  114  A    between atoms: _292  and  _294
REMARK  115  A    between atoms: _294  and  _295
REMARK  116  A    between atoms: _294  and  _297
REMARK  117  A    between atoms: _297  and  _298
REMARK  118  A    between atoms: _301  and  _303
REMARK  119  A    between atoms: _303  and  _304
REMARK  120  A    between atoms: _307  and  _309
REMARK  121  A    between atoms: _309  and  _310
REMARK  122  A    between atoms: _309  and  _312
REMARK  123  A    between atoms: _312  and  _313
REMARK  124  A    between atoms: _317  and  ZN_632
REMARK  125  A    between atoms: _318  and  _320
REMARK  126  A    between atoms: _320  and  _321
REMARK  127  A    between atoms: _320  and  _323
REMARK  128  A    between atoms: _323  and  _324
REMARK  129  A    between atoms: _327  and  _329
REMARK  130  A    between atoms: _329  and  _330
REMARK  131  A    between atoms: _329  and  _332
REMARK  132  A    between atoms: _332  and  _333
REMARK  133  A    between atoms: _335  and  _337
REMARK  134  A    between atoms: _337  and  _338
REMARK  135  A    between atoms: _337  and  _340
REMARK  136  A    between atoms: _340  and  _341
REMARK  137  A    between atoms: _341  and  _342
REMARK  138  A    between atoms: _345  and  _347
REMARK  139  A    between atoms: _347  and  _348
REMARK  140  A    between atoms: _350  and  _352
REMARK  141  A    between atoms: _352  and  _353
REMARK  142  A    between atoms: _356  and  _358
REMARK  143  A    between atoms: _358  and  _359
REMARK  144  A    between atoms: _358  and  _361
REMARK  145  A    between atoms: _361  and  _362
REMARK  146  A    between atoms: _368  and  _370
REMARK  147  A    between atoms: _370  and  _371
REMARK  148  A    between atoms: _370  and  _373
REMARK  149  A    between atoms: _373  and  _374
REMARK  150  A    between atoms: _379  and  _380
REMARK  151  A    between atoms: _382  and  _384
REMARK  152  A    between atoms: _384  and  _385
REMARK  153  A    between atoms: _384  and  _387
REMARK  154  A    between atoms: _387  and  _388
REMARK  155  A    between atoms: _388  and  _389
REMARK  156  A    between atoms: _389  and  _390
REMARK  157  A    between atoms: _390  and  _391
REMARK  158  A    between atoms: _395  and  _397
REMARK  159  A    between atoms: _397  and  _398
REMARK  160  A    between atoms: _397  and  _400
REMARK  161  A    between atoms: _400  and  _401
REMARK  162  A    between atoms: _404  and  _406
REMARK  163  A    between atoms: _406  and  _407
REMARK  164  A    between atoms: _406  and  _409
REMARK  165  A    between atoms: _409  and  _410
REMARK  166  A    between atoms: _410  and  _411
REMARK  167  A    between atoms: _414  and  _416
REMARK  168  A    between atoms: _416  and  _417
REMARK  169  A    between atoms: _416  and  _419
REMARK  170  A    between atoms: _419  and  _420
REMARK  171  A    between atoms: _430  and  _432
REMARK  172  A    between atoms: _432  and  _433
REMARK  173  A    between atoms: _432  and  _435
REMARK  174  A    between atoms: _435  and  _436
REMARK  175  A    between atoms: _436  and  _437
REMARK  176  A    between atoms: _442  and  _444
REMARK  177  A    between atoms: _444  and  _445
REMARK  178  A    between atoms: _444  and  _447
REMARK  179  A    between atoms: _449  and  _451
REMARK  180  A    between atoms: _451  and  _452
REMARK  181  A    between atoms: _454  and  _456
REMARK  182  A    between atoms: _456  and  _457
REMARK  183  A    between atoms: _456  and  _459
REMARK  184  A    between atoms: _459  and  _460
REMARK  185  A    between atoms: _463  and  _465
REMARK  186  A    between atoms: _465  and  _466
REMARK  187  A    between atoms: _465  and  _468
REMARK  188  A    between atoms: _471  and  _473
REMARK  189  A    between atoms: _473  and  _474
REMARK  190  A    between atoms: _473  and  _476
REMARK  191  A    between atoms: _476  and  _477
REMARK  192  A    between atoms: _477  and  _478
REMARK  193  A    between atoms: _483  and  _485
REMARK  194  A    between atoms: _485  and  _486
REMARK  195  A    between atoms: _485  and  _488
REMARK  196  A    between atoms: _488  and  _489
REMARK  197  A    between atoms: _492  and  _494
REMARK  198  A    between atoms: _494  and  _495
REMARK  199  A    between atoms: _494  and  _497
REMARK  200  A    between atoms: _497  and  _498
REMARK  201  A    between atoms: _501  and  _503
REMARK  202  A    between atoms: _503  and  _504
REMARK  203  A    between atoms: _503  and  _506
REMARK  204  A    between atoms: _506  and  _507
REMARK  205  A    between atoms: _507  and  _508
REMARK  206  A    between atoms: _510  and  _512
REMARK  207  A    between atoms: _512  and  _513
REMARK  208  A    between atoms: _512  and  _515
REMARK  209  A    between atoms: _515  and  _516
REMARK  210  A    between atoms: _519  and  _521
REMARK  211  A    between atoms: _521  and  _522
REMARK  212  A    between atoms: _521  and  _524
REMARK  213  A    between atoms: _524  and  _525
REMARK  214  A    between atoms: _526  and  ZN_632
REMARK  215  A    between atoms: _530  and  _532
REMARK  216  A    between atoms: _532  and  _533
REMARK  217  A    between atoms: _532  and  _535
REMARK  218  A    between atoms: _535  and  _536
REMARK  219  A    between atoms: _536  and  _537
REMARK  220  A    between atoms: _537  and  _538
REMARK  221  A    between atoms: _547  and  _549
REMARK  222  A    between atoms: _549  and  _550
REMARK  223  A    between atoms: _553  and  _555
REMARK  224  A    between atoms: _555  and  _556
REMARK  225  A    between atoms: _555  and  _558
REMARK  226  A    between atoms: _558  and  _559
REMARK  227  A    between atoms: _562  and  _564
REMARK  228  A    between atoms: _564  and  _565
REMARK  229  A    between atoms: _564  and  _567
REMARK  230  A    between atoms: _567  and  _568
REMARK  231  A    between atoms: _571  and  _573
REMARK  232  A    between atoms: _573  and  _574
REMARK  233  A    between atoms: _576  and  _578
REMARK  234  A    between atoms: _578  and  _579
REMARK  235  A    between atoms: _578  and  _581
REMARK  236  A    between atoms: _581  and  _582
REMARK  237  A    between atoms: _584  and  _586
REMARK  238  A    between atoms: _586  and  _587
REMARK  239  A    between atoms: _586  and  _589
REMARK  240  A    between atoms: _589  and  _590
REMARK  241  A    between atoms: _590  and  _591
REMARK  242  A    between atoms: _593  and  _595
REMARK  243  A    between atoms: _595  and  _596
REMARK  244  A    between atoms: _595  and  _598
REMARK  245  A    between atoms: _598  and  _599
REMARK  246  A    between atoms: _599  and  _600
REMARK  247  A    between atoms: _603  and  _605
REMARK  248  A    between atoms: _605  and  _606
REMARK  249  A    between atoms: _605  and  _608
REMARK  250  A    between atoms: _608  and  _609
REMARK  251  A    between atoms: _609  and  _610
REMARK  252  A    between atoms: _610  and  _611
REMARK  253  A    between atoms: _620  and  _622
REMARK  254  A    between atoms: _622  and  _623
REMARK  255  A    between atoms: _622  and  _625
REMARK  256  A    between atoms: _625  and  _626
REMARK                            x       y       z     vdW  Elec       q    Type
REMARK                         _______ _______ _______ _____ _____    ______ ____
ROOT
ATOM      1  O   HOH     1      -9.541 -39.485  10.410  0.00  0.00    +0.000 OA
ENDROOT
TORSDOF 0
REMARK  Name = ../refined-set-2016/4hwp/4hwp_pocket.pdb
REMARK  256 active torsions:
REMARK  status: ('A' for Active; 'I' for Inactive)
REMARK    1  A    between atoms: _1  and  _3
REMARK    2  A    between atoms: _3  and  _4
REMARK    3  A    between atoms: _6  and  _8
REMARK    4  A    between atoms: _8  and  _9
REMARK    5  A    between atoms: _8  and  _11
REMARK    6  A    between atoms: _11  and  _12
REMARK    7  A    between atoms: _17  and  _19
REMARK    8  A    between atoms: _19  and  _20
REMARK    9  A    between atoms: _19  and  _22
REMARK   10  A    between atoms: _22  and  _23
REMARK   11  A    between atoms: _28  and  _29
REMARK   12  A    between atoms: _31  and  _33
REMARK   13  A    between atoms: _33  and  _34
REMARK   14  A    between atoms: _38  and  _39
REMARK   15  A    between atoms: _44  and  _46
REMARK   16  A    between atoms: _46  and  _47
REMARK   17  A    between atoms: _46  and  _49
REMARK   18  A    between atoms: _49  and  _50
REMARK   19  A    between atoms: _50  and  _51
REMARK   20  A    between atoms: _53  and  _55
REMARK   21  A    between atoms: _55  and  _56
REMARK   22  A    between atoms: _55  and  _58
REMARK   23  A    between atoms: _58  and  _59
REMARK   24  A    between atoms: _64  and  _66
REMARK   25  A    between atoms: _66  and  _67
REMARK   26  A    between atoms: _66  and  _69
REMARK   27  A    between atoms: _69  and  _70
REMARK   28  A    between atoms: _70  and  ZN_632
REMARK   29  A    between atoms: _72  and  _73
REMARK   30  A    between atoms: _78  and  _80
REMARK   31  A    between atoms: _80  and  _81
REMARK   32  A    between atoms: _80  and  _83
REMARK   33  A    between atoms: _83  and  _84
REMARK   34  A    between atoms: _89  and  _91
REMARK   35  A    between atoms: _91  and  _92
REMARK   36  A    between atoms: _91  and  _94
REMARK   37  A    between atoms: _96  and  _98
REMARK   38  A    between atoms: _98  and  _99
REMARK   39  A    between atoms: _98  and  _101
REMARK   40  A    between atoms: _101  and  _102
REMARK   41  A    between atoms: _107  and  _109
REMARK   42  A    between atoms: _109  and  _110
REMARK   43  A    between atoms: _109  and  _112
REMARK   44  A    between atoms: _112  and  _113
REMARK   45  A    between atoms: _113  and  _114
REMARK   46  A    between atoms: _114  and  _115
REMARK   47  A    between atoms: _124  and  _126
REMARK   48  A    between atoms: _126  and  _127
REMARK   49  A    between atoms: _126  and  _129
REMARK   50  A    between atoms: _129  and  _130
REMARK   51  A    between atoms: _135  and  _137
REMARK   52  A    between atoms: _137  and  _138
REMARK   53  A    between atoms: _137  and  _140
REMARK   54  A    between atoms: _140  and  _141
REMARK   55  A    between atoms: _141  and  _142
REMARK   56  A    between atoms: _146  and  _147
REMARK   57  A    between atoms: _152  and  _154
REMARK   58  A    between atoms: _154  and  _155
REMARK   59  A    between atoms: _154  and  _157
REMARK   60  A    between atoms: _157  and  _158
REMARK   61  A    between atoms: _160  and  _162
REMARK   62  A    between atoms: _162  and  _163
REMARK   63  A    between atoms: _162  and  _165
REMARK   64  A    between atoms: _165  and  _166
REMARK   65  A    between atoms: _169  and  _171
REMARK   66  A    between atoms: _171  and  _172
REMARK   67  A    between atoms: _171  and  _174
REMARK   68  A    between atoms: _174  and  _175
REMARK   69  A    between atoms: _180  and  _182
REMARK   70  A    between atoms: _182  and  _183
REMARK   71  A    between atoms: _185  and  _187
REMARK   72  A    between atoms: _187  and  _188
REMARK   73  A    between atoms: _187  and  _190
REMARK   74  A    between atoms: _190  and  _191
REMARK   75  A    between atoms: _194  and  _196
REMARK   76  A    between atoms: _196  and  _197
REMARK   77  A    between atoms: _196  and  _199
REMARK   78  A    between atoms: _199  and  _200
REMARK   79  A    between atoms: _200  and  _201
REMARK   80  A    between atoms: _203  and  _205
REMARK   81  A    between atoms: _205  and  _206
REMARK   82  A    between atoms: _205  and  _208
REMARK   83  A    between atoms: _208  and  _209
REMARK   84  A    between atoms: _209  and  _210
REMARK   85  A    between atoms: _210  and  _211
REMARK   86  A    between atoms: _220  and  _222
REMARK   87  A    between atoms: _222  and  _223
REMARK   88  A    between atoms: _222  and  _225
REMARK   89  A    between atoms: _228  and  _230
REMARK   90  A    between atoms: _230  and  _231
REMARK   91  A    between atoms: _230  and  _233
REMARK   92  A    between atoms: _233  and  _234
REMARK   93  A    between atoms: _234  and  _235
REMARK   94  A    between atoms: _235  and  _236
REMARK   95  A    between atoms: _245  and  _247
REMARK   96  A    between atoms: _247  and  _248
REMARK   97  A    between atoms: _250  and  _252
REMARK   98  A    between atoms: _252  and  _253
REMARK   99  A    between atoms: _252  and  _255
REMARK  100  A    between atoms: _255  and  _256
REMARK  101  A    between atoms: _262  and  _264
REMARK  102  A    between atoms: _264  and  _265
REMARK  103  A    between atoms: _264  and  _267
REMARK  104  A    between atoms: _267  and  _268
REMARK  105  A    between atoms: _271  and  _273
REMARK  106  A    between atoms: _273  and  _274
REMARK  107  A    between atoms: _273  and  _276
REMARK  108  A    between atoms: _276  and  _277
REMARK  109  A    between atoms: _277  and  _278
REMARK  110  A    between atoms: _283  and  _285
REMARK  111  A    between atoms: _285  and  _286
REMARK  112  A    between atoms: _285  and  _288
REMARK  113  A    between atoms: _288  and  _289
REMARK  114  A    between atoms: _292  and  _294
REMARK  115  A    between atoms: _294  and  _295
REMARK  116  A    between atoms: _294  and  _297
REMARK  117  A    between atoms: _297  and  _298
REMARK  118  A    between atoms: _301  and  _303
REMARK  119  A    between atoms: _303  and  _304
REMARK  120  A    between atoms: _307  and  _309
REMARK  121  A    between atoms: _309  and  _310
REMARK  122  A    between atoms: _309  and  _312
REMARK  123  A    between atoms: _312  and  _313
REMARK  124  A    between atoms: _317  and  ZN_632
REMARK  125  A    between atoms: _318  and  _320
REMARK  126  A    between atoms: _320  and  _321
REMARK  127  A    between atoms: _320  and  _323
REMARK  128  A    between atoms: _323  and  _324
REMARK  129  A    between atoms: _327  and  _329
REMARK  130  A    between atoms: _329  and  _330
REMARK  131  A    between atoms: _329  and  _332
REMARK  132  A    between atoms: _332  and  _333
REMARK  133  A    between atoms: _335  and  _337
REMARK  134  A    between atoms: _337  and  _338
REMARK  135  A    between atoms: _337  and  _340
REMARK  136  A    between atoms: _340  and  _341
REMARK  137  A    between atoms: _341  and  _342
REMARK  138  A    between atoms: _345  and  _347
REMARK  139  A    between atoms: _347  and  _348
REMARK  140  A    between atoms: _350  and  _352
REMARK  141  A    between atoms: _352  and  _353
REMARK  142  A    between atoms: _356  and  _358
REMARK  143  A    between atoms: _358  and  _359
REMARK  144  A    between atoms: _358  and  _361
REMARK  145  A    between atoms: _361  and  _362
REMARK  146  A    between atoms: _368  and  _370
REMARK  147  A    between atoms: _370  and  _371
REMARK  148  A    between atoms: _370  and  _373
REMARK  149  A    between atoms: _373  and  _374
REMARK  150  A    between atoms: _379  and  _380
REMARK  151  A    between atoms: _382  and  _384
REMARK  152  A    between atoms: _384  and  _385
REMARK  153  A    between atoms: _384  and  _387
REMARK  154  A    between atoms: _387  and  _388
REMARK  155  A    between atoms: _388  and  _389
REMARK  156  A    between atoms: _389  and  _390
REMARK  157  A    between atoms: _390  and  _391
REMARK  158  A    between atoms: _395  and  _397
REMARK  159  A    between atoms: _397  and  _398
REMARK  160  A    between atoms: _397  and  _400
REMARK  161  A    between atoms: _400  and  _401
REMARK  162  A    between atoms: _404  and  _406
REMARK  163  A    between atoms: _406  and  _407
REMARK  164  A    between atoms: _406  and  _409
REMARK  165  A    between atoms: _409  and  _410
REMARK  166  A    between atoms: _410  and  _411
REMARK  167  A    between atoms: _414  and  _416
REMARK  168  A    between atoms: _416  and  _417
REMARK  169  A    between atoms: _416  and  _419
REMARK  170  A    between atoms: _419  and  _420
REMARK  171  A    between atoms: _430  and  _432
REMARK  172  A    between atoms: _432  and  _433
REMARK  173  A    between atoms: _432  and  _435
REMARK  174  A    between atoms: _435  and  _436
REMARK  175  A    between atoms: _436  and  _437
REMARK  176  A    between atoms: _442  and  _444
REMARK  177  A    between atoms: _444  and  _445
REMARK  178  A    between atoms: _444  and  _447
REMARK  179  A    between atoms: _449  and  _451
REMARK  180  A    between atoms: _451  and  _452
REMARK  181  A    between atoms: _454  and  _456
REMARK  182  A    between atoms: _456  and  _457
REMARK  183  A    between atoms: _456  and  _459
REMARK  184  A    between atoms: _459  and  _460
REMARK  185  A    between atoms: _463  and  _465
REMARK  186  A    between atoms: _465  and  _466
REMARK  187  A    between atoms: _465  and  _468
REMARK  188  A    between atoms: _471  and  _473
REMARK  189  A    between atoms: _473  and  _474
REMARK  190  A    between atoms: _473  and  _476
REMARK  191  A    between atoms: _476  and  _477
REMARK  192  A    between atoms: _477  and  _478
REMARK  193  A    between atoms: _483  and  _485
REMARK  194  A    between atoms: _485  and  _486
REMARK  195  A    between atoms: _485  and  _488
REMARK  196  A    between atoms: _488  and  _489
REMARK  197  A    between atoms: _492  and  _494
REMARK  198  A    between atoms: _494  and  _495
REMARK  199  A    between atoms: _494  and  _497
REMARK  200  A    between atoms: _497  and  _498
REMARK  201  A    between atoms: _501  and  _503
REMARK  202  A    between atoms: _503  and  _504
REMARK  203  A    between atoms: _503  and  _506
REMARK  204  A    between atoms: _506  and  _507
REMARK  205  A    between atoms: _507  and  _508
REMARK  206  A    between atoms: _510  and  _512
REMARK  207  A    between atoms: _512  and  _513
REMARK  208  A    between atoms: _512  and  _515
REMARK  209  A    between atoms: _515  and  _516
REMARK  210  A    between atoms: _519  and  _521
REMARK  211  A    between atoms: _521  and  _522
REMARK  212  A    between atoms: _521  and  _524
REMARK  213  A    between atoms: _524  and  _525
REMARK  214  A    between atoms: _526  and  ZN_632
REMARK  215  A    between atoms: _530  and  _532
REMARK  216  A    between atoms: _532  and  _533
REMARK  217  A    between atoms: _532  and  _535
REMARK  218  A    between atoms: _535  and  _536
REMARK  219  A    between atoms: _536  and  _537
REMARK  220  A    between atoms: _537  and  _538
REMARK  221  A    between atoms: _547  and  _549
REMARK  222  A    between atoms: _549  and  _550
REMARK  223  A    between atoms: _553  and  _555
REMARK  224  A    between atoms: _555  and  _556
REMARK  225  A    between atoms: _555  and  _558
REMARK  226  A    between atoms: _558  and  _559
REMARK  227  A    between atoms: _562  and  _564
REMARK  228  A    between atoms: _564  and  _565
REMARK  229  A    between atoms: _564  and  _567
REMARK  230  A    between atoms: _567  and  _568
REMARK  231  A    between atoms: _571  and  _573
REMARK  232  A    between atoms: _573  and  _574
REMARK  233  A    between atoms: _576  and  _578
REMARK  234  A    between atoms: _578  and  _579
REMARK  235  A    between atoms: _578  and  _581
REMARK  236  A    between atoms: _581  and  _582
REMARK  237  A    between atoms: _584  and  _586
REMARK  238  A    between atoms: _586  and  _587
REMARK  239  A    between atoms: _586  and  _589
REMARK  240  A    between atoms: _589  and  _590
REMARK  241  A    between atoms: _590  and  _591
REMARK  242  A    between atoms: _593  and  _595
REMARK  243  A    between atoms: _595  and  _596
REMARK  244  A    between atoms: _595  and  _598
REMARK  245  A    between atoms: _598  and  _599
REMARK  246  A    between atoms: _599  and  _600
REMARK  247  A    between atoms: _603  and  _605
REMARK  248  A    between atoms: _605  and  _606
REMARK  249  A    between atoms: _605  and  _608
REMARK  250  A    between atoms: _608  and  _609
REMARK  251  A    between atoms: _609  and  _610
REMARK  252  A    between atoms: _610  and  _611
REMARK  253  A    between atoms: _620  and  _622
REMARK  254  A    between atoms: _622  and  _623
REMARK  255  A    between atoms: _622  and  _625
REMARK  256  A    between atoms: _625  and  _626
REMARK                            x       y       z     vdW  Elec       q    Type
REMARK                         _______ _______ _______ _____ _____    ______ ____
ROOT
ATOM      1  O   HOH     1     -20.340 -41.366  13.705  0.00  0.00    +0.000 OA
ENDROOT
TORSDOF 0
REMARK  Name = ../refined-set-2016/4hwp/4hwp_pocket.pdb
REMARK  256 active torsions:
REMARK  status: ('A' for Active; 'I' for Inactive)
REMARK    1  A    between atoms: _1  and  _3
REMARK    2  A    between atoms: _3  and  _4
REMARK    3  A    between atoms: _6  and  _8
REMARK    4  A    between atoms: _8  and  _9
REMARK    5  A    between atoms: _8  and  _11
REMARK    6  A    between atoms: _11  and  _12
REMARK    7  A    between atoms: _17  and  _19
REMARK    8  A    between atoms: _19  and  _20
REMARK    9  A    between atoms: _19  and  _22
REMARK   10  A    between atoms: _22  and  _23
REMARK   11  A    between atoms: _28  and  _29
REMARK   12  A    between atoms: _31  and  _33
REMARK   13  A    between atoms: _33  and  _34
REMARK   14  A    between atoms: _38  and  _39
REMARK   15  A    between atoms: _44  and  _46
REMARK   16  A    between atoms: _46  and  _47
REMARK   17  A    between atoms: _46  and  _49
REMARK   18  A    between atoms: _49  and  _50
REMARK   19  A    between atoms: _50  and  _51
REMARK   20  A    between atoms: _53  and  _55
REMARK   21  A    between atoms: _55  and  _56
REMARK   22  A    between atoms: _55  and  _58
REMARK   23  A    between atoms: _58  and  _59
REMARK   24  A    between atoms: _64  and  _66
REMARK   25  A    between atoms: _66  and  _67
REMARK   26  A    between atoms: _66  and  _69
REMARK   27  A    between atoms: _69  and  _70
REMARK   28  A    between atoms: _70  and  ZN_632
REMARK   29  A    between atoms: _72  and  _73
REMARK   30  A    between atoms: _78  and  _80
REMARK   31  A    between atoms: _80  and  _81
REMARK   32  A    between atoms: _80  and  _83
REMARK   33  A    between atoms: _83  and  _84
REMARK   34  A    between atoms: _89  and  _91
REMARK   35  A    between atoms: _91  and  _92
REMARK   36  A    between atoms: _91  and  _94
REMARK   37  A    between atoms: _96  and  _98
REMARK   38  A    between atoms: _98  and  _99
REMARK   39  A    between atoms: _98  and  _101
REMARK   40  A    between atoms: _101  and  _102
REMARK   41  A    between atoms: _107  and  _109
REMARK   42  A    between atoms: _109  and  _110
REMARK   43  A    between atoms: _109  and  _112
REMARK   44  A    between atoms: _112  and  _113
REMARK   45  A    between atoms: _113  and  _114
REMARK   46  A    between atoms: _114  and  _115
REMARK   47  A    between atoms: _124  and  _126
REMARK   48  A    between atoms: _126  and  _127
REMARK   49  A    between atoms: _126  and  _129
REMARK   50  A    between atoms: _129  and  _130
REMARK   51  A    between atoms: _135  and  _137
REMARK   52  A    between atoms: _137  and  _138
REMARK   53  A    between atoms: _137  and  _140
REMARK   54  A    between atoms: _140  and  _141
REMARK   55  A    between atoms: _141  and  _142
REMARK   56  A    between atoms: _146  and  _147
REMARK   57  A    between atoms: _152  and  _154
REMARK   58  A    between atoms: _154  and  _155
REMARK   59  A    between atoms: _154  and  _157
REMARK   60  A    between atoms: _157  and  _158
REMARK   61  A    between atoms: _160  and  _162
REMARK   62  A    between atoms: _162  and  _163
REMARK   63  A    between atoms: _162  and  _165
REMARK   64  A    between atoms: _165  and  _166
REMARK   65  A    between atoms: _169  and  _171
REMARK   66  A    between atoms: _171  and  _172
REMARK   67  A    between atoms: _171  and  _174
REMARK   68  A    between atoms: _174  and  _175
REMARK   69  A    between atoms: _180  and  _182
REMARK   70  A    between atoms: _182  and  _183
REMARK   71  A    between atoms: _185  and  _187
REMARK   72  A    between atoms: _187  and  _188
REMARK   73  A    between atoms: _187  and  _190
REMARK   74  A    between atoms: _190  and  _191
REMARK   75  A    between atoms: _194  and  _196
REMARK   76  A    between atoms: _196  and  _197
REMARK   77  A    between atoms: _196  and  _199
REMARK   78  A    between atoms: _199  and  _200
REMARK   79  A    between atoms: _200  and  _201
REMARK   80  A    between atoms: _203  and  _205
REMARK   81  A    between atoms: _205  and  _206
REMARK   82  A    between atoms: _205  and  _208
REMARK   83  A    between atoms: _208  and  _209
REMARK   84  A    between atoms: _209  and  _210
REMARK   85  A    between atoms: _210  and  _211
REMARK   86  A    between atoms: _220  and  _222
REMARK   87  A    between atoms: _222  and  _223
REMARK   88  A    between atoms: _222  and  _225
REMARK   89  A    between atoms: _228  and  _230
REMARK   90  A    between atoms: _230  and  _231
REMARK   91  A    between atoms: _230  and  _233
REMARK   92  A    between atoms: _233  and  _234
REMARK   93  A    between atoms: _234  and  _235
REMARK   94  A    between atoms: _235  and  _236
REMARK   95  A    between atoms: _245  and  _247
REMARK   96  A    between atoms: _247  and  _248
REMARK   97  A    between atoms: _250  and  _252
REMARK   98  A    between atoms: _252  and  _253
REMARK   99  A    between atoms: _252  and  _255
REMARK  100  A    between atoms: _255  and  _256
REMARK  101  A    between atoms: _262  and  _264
REMARK  102  A    between atoms: _264  and  _265
REMARK  103  A    between atoms: _264  and  _267
REMARK  104  A    between atoms: _267  and  _268
REMARK  105  A    between atoms: _271  and  _273
REMARK  106  A    between atoms: _273  and  _274
REMARK  107  A    between atoms: _273  and  _276
REMARK  108  A    between atoms: _276  and  _277
REMARK  109  A    between atoms: _277  and  _278
REMARK  110  A    between atoms: _283  and  _285
REMARK  111  A    between atoms: _285  and  _286
REMARK  112  A    between atoms: _285  and  _288
REMARK  113  A    between atoms: _288  and  _289
REMARK  114  A    between atoms: _292  and  _294
REMARK  115  A    between atoms: _294  and  _295
REMARK  116  A    between atoms: _294  and  _297
REMARK  117  A    between atoms: _297  and  _298
REMARK  118  A    between atoms: _301  and  _303
REMARK  119  A    between atoms: _303  and  _304
REMARK  120  A    between atoms: _307  and  _309
REMARK  121  A    between atoms: _309  and  _310
REMARK  122  A    between atoms: _309  and  _312
REMARK  123  A    between atoms: _312  and  _313
REMARK  124  A    between atoms: _317  and  ZN_632
REMARK  125  A    between atoms: _318  and  _320
REMARK  126  A    between atoms: _320  and  _321
REMARK  127  A    between atoms: _320  and  _323
REMARK  128  A    between atoms: _323  and  _324
REMARK  129  A    between atoms: _327  and  _329
REMARK  130  A    between atoms: _329  and  _330
REMARK  131  A    between atoms: _329  and  _332
REMARK  132  A    between atoms: _332  and  _333
REMARK  133  A    between atoms: _335  and  _337
REMARK  134  A    between atoms: _337  and  _338
REMARK  135  A    between atoms: _337  and  _340
REMARK  136  A    between atoms: _340  and  _341
REMARK  137  A    between atoms: _341  and  _342
REMARK  138  A    between atoms: _345  and  _347
REMARK  139  A    between atoms: _347  and  _348
REMARK  140  A    between atoms: _350  and  _352
REMARK  141  A    between atoms: _352  and  _353
REMARK  142  A    between atoms: _356  and  _358
REMARK  143  A    between atoms: _358  and  _359
REMARK  144  A    between atoms: _358  and  _361
REMARK  145  A    between atoms: _361  and  _362
REMARK  146  A    between atoms: _368  and  _370
REMARK  147  A    between atoms: _370  and  _371
REMARK  148  A    between atoms: _370  and  _373
REMARK  149  A    between atoms: _373  and  _374
REMARK  150  A    between atoms: _379  and  _380
REMARK  151  A    between atoms: _382  and  _384
REMARK  152  A    between atoms: _384  and  _385
REMARK  153  A    between atoms: _384  and  _387
REMARK  154  A    between atoms: _387  and  _388
REMARK  155  A    between atoms: _388  and  _389
REMARK  156  A    between atoms: _389  and  _390
REMARK  157  A    between atoms: _390  and  _391
REMARK  158  A    between atoms: _395  and  _397
REMARK  159  A    between atoms: _397  and  _398
REMARK  160  A    between atoms: _397  and  _400
REMARK  161  A    between atoms: _400  and  _401
REMARK  162  A    between atoms: _404  and  _406
REMARK  163  A    between atoms: _406  and  _407
REMARK  164  A    between atoms: _406  and  _409
REMARK  165  A    between atoms: _409  and  _410
REMARK  166  A    between atoms: _410  and  _411
REMARK  167  A    between atoms: _414  and  _416
REMARK  168  A    between atoms: _416  and  _417
REMARK  169  A    between atoms: _416  and  _419
REMARK  170  A    between atoms: _419  and  _420
REMARK  171  A    between atoms: _430  and  _432
REMARK  172  A    between atoms: _432  and  _433
REMARK  173  A    between atoms: _432  and  _435
REMARK  174  A    between atoms: _435  and  _436
REMARK  175  A    between atoms: _436  and  _437
REMARK  176  A    between atoms: _442  and  _444
REMARK  177  A    between atoms: _444  and  _445
REMARK  178  A    between atoms: _444  and  _447
REMARK  179  A    between atoms: _449  and  _451
REMARK  180  A    between atoms: _451  and  _452
REMARK  181  A    between atoms: _454  and  _456
REMARK  182  A    between atoms: _456  and  _457
REMARK  183  A    between atoms: _456  and  _459
REMARK  184  A    between atoms: _459  and  _460
REMARK  185  A    between atoms: _463  and  _465
REMARK  186  A    between atoms: _465  and  _466
REMARK  187  A    between atoms: _465  and  _468
REMARK  188  A    between atoms: _471  and  _473
REMARK  189  A    between atoms: _473  and  _474
REMARK  190  A    between atoms: _473  and  _476
REMARK  191  A    between atoms: _476  and  _477
REMARK  192  A    between atoms: _477  and  _478
REMARK  193  A    between atoms: _483  and  _485
REMARK  194  A    between atoms: _485  and  _486
REMARK  195  A    between atoms: _485  and  _488
REMARK  196  A    between atoms: _488  and  _489
REMARK  197  A    between atoms: _492  and  _494
REMARK  198  A    between atoms: _494  and  _495
REMARK  199  A    between atoms: _494  and  _497
REMARK  200  A    between atoms: _497  and  _498
REMARK  201  A    between atoms: _501  and  _503
REMARK  202  A    between atoms: _503  and  _504
REMARK  203  A    between atoms: _503  and  _506
REMARK  204  A    between atoms: _506  and  _507
REMARK  205  A    between atoms: _507  and  _508
REMARK  206  A    between atoms: _510  and  _512
REMARK  207  A    between atoms: _512  and  _513
REMARK  208  A    between atoms: _512  and  _515
REMARK  209  A    between atoms: _515  and  _516
REMARK  210  A    between atoms: _519  and  _521
REMARK  211  A    between atoms: _521  and  _522
REMARK  212  A    between atoms: _521  and  _524
REMARK  213  A    between atoms: _524  and  _525
REMARK  214  A    between atoms: _526  and  ZN_632
REMARK  215  A    between atoms: _530  and  _532
REMARK  216  A    between atoms: _532  and  _533
REMARK  217  A    between atoms: _532  and  _535
REMARK  218  A    between atoms: _535  and  _536
REMARK  219  A    between atoms: _536  and  _537
REMARK  220  A    between atoms: _537  and  _538
REMARK  221  A    between atoms: _547  and  _549
REMARK  222  A    between atoms: _549  and  _550
REMARK  223  A    between atoms: _553  and  _555
REMARK  224  A    between atoms: _555  and  _556
REMARK  225  A    between atoms: _555  and  _558
REMARK  226  A    between atoms: _558  and  _559
REMARK  227  A    between atoms: _562  and  _564
REMARK  228  A    between atoms: _564  and  _565
REMARK  229  A    between atoms: _564  and  _567
REMARK  230  A    between atoms: _567  and  _568
REMARK  231  A    between atoms: _571  and  _573
REMARK  232  A    between atoms: _573  and  _574
REMARK  233  A    between atoms: _576  and  _578
REMARK  234  A    between atoms: _578  and  _579
REMARK  235  A    between atoms: _578  and  _581
REMARK  236  A    between atoms: _581  and  _582
REMARK  237  A    between atoms: _584  and  _586
REMARK  238  A    between atoms: _586  and  _587
REMARK  239  A    between atoms: _586  and  _589
REMARK  240  A    between atoms: _589  and  _590
REMARK  241  A    between atoms: _590  and  _591
REMARK  242  A    between atoms: _593  and  _595
REMARK  243  A    between atoms: _595  and  _596
REMARK  244  A    between atoms: _595  and  _598
REMARK  245  A    between atoms: _598  and  _599
REMARK  246  A    between atoms: _599  and  _600
REMARK  247  A    between atoms: _603  and  _605
REMARK  248  A    between atoms: _605  and  _606
REMARK  249  A    between atoms: _605  and  _608
REMARK  250  A    between atoms: _608  and  _609
REMARK  251  A    between atoms: _609  and  _610
REMARK  252  A    between atoms: _610  and  _611
REMARK  253  A    between atoms: _620  and  _622
REMARK  254  A    between atoms: _622  and  _623
REMARK  255  A    between atoms: _622  and  _625
REMARK  256  A    between atoms: _625  and  _626
REMARK                            x       y       z     vdW  Elec       q    Type
REMARK                         _______ _______ _______ _____ _____    ______ ____
ROOT
ATOM      1  O   HOH     1     -16.639 -39.399  21.045  0.00  0.00    +0.000 OA
ENDROOT
TORSDOF 0
REMARK  Name = ../refined-set-2016/4hwp/4hwp_pocket.pdb
REMARK  256 active torsions:
REMARK  status: ('A' for Active; 'I' for Inactive)
REMARK    1  A    between atoms: _1  and  _3
REMARK    2  A    between atoms: _3  and  _4
REMARK    3  A    between atoms: _6  and  _8
REMARK    4  A    between atoms: _8  and  _9
REMARK    5  A    between atoms: _8  and  _11
REMARK    6  A    between atoms: _11  and  _12
REMARK    7  A    between atoms: _17  and  _19
REMARK    8  A    between atoms: _19  and  _20
REMARK    9  A    between atoms: _19  and  _22
REMARK   10  A    between atoms: _22  and  _23
REMARK   11  A    between atoms: _28  and  _29
REMARK   12  A    between atoms: _31  and  _33
REMARK   13  A    between atoms: _33  and  _34
REMARK   14  A    between atoms: _38  and  _39
REMARK   15  A    between atoms: _44  and  _46
REMARK   16  A    between atoms: _46  and  _47
REMARK   17  A    between atoms: _46  and  _49
REMARK   18  A    between atoms: _49  and  _50
REMARK   19  A    between atoms: _50  and  _51
REMARK   20  A    between atoms: _53  and  _55
REMARK   21  A    between atoms: _55  and  _56
REMARK   22  A    between atoms: _55  and  _58
REMARK   23  A    between atoms: _58  and  _59
REMARK   24  A    between atoms: _64  and  _66
REMARK   25  A    between atoms: _66  and  _67
REMARK   26  A    between atoms: _66  and  _69
REMARK   27  A    between atoms: _69  and  _70
REMARK   28  A    between atoms: _70  and  ZN_632
REMARK   29  A    between atoms: _72  and  _73
REMARK   30  A    between atoms: _78  and  _80
REMARK   31  A    between atoms: _80  and  _81
REMARK   32  A    between atoms: _80  and  _83
REMARK   33  A    between atoms: _83  and  _84
REMARK   34  A    between atoms: _89  and  _91
REMARK   35  A    between atoms: _91  and  _92
REMARK   36  A    between atoms: _91  and  _94
REMARK   37  A    between atoms: _96  and  _98
REMARK   38  A    between atoms: _98  and  _99
REMARK   39  A    between atoms: _98  and  _101
REMARK   40  A    between atoms: _101  and  _102
REMARK   41  A    between atoms: _107  and  _109
REMARK   42  A    between atoms: _109  and  _110
REMARK   43  A    between atoms: _109  and  _112
REMARK   44  A    between atoms: _112  and  _113
REMARK   45  A    between atoms: _113  and  _114
REMARK   46  A    between atoms: _114  and  _115
REMARK   47  A    between atoms: _124  and  _126
REMARK   48  A    between atoms: _126  and  _127
REMARK   49  A    between atoms: _126  and  _129
REMARK   50  A    between atoms: _129  and  _130
REMARK   51  A    between atoms: _135  and  _137
REMARK   52  A    between atoms: _137  and  _138
REMARK   53  A    between atoms: _137  and  _140
REMARK   54  A    between atoms: _140  and  _141
REMARK   55  A    between atoms: _141  and  _142
REMARK   56  A    between atoms: _146  and  _147
REMARK   57  A    between atoms: _152  and  _154
REMARK   58  A    between atoms: _154  and  _155
REMARK   59  A    between atoms: _154  and  _157
REMARK   60  A    between atoms: _157  and  _158
REMARK   61  A    between atoms: _160  and  _162
REMARK   62  A    between atoms: _162  and  _163
REMARK   63  A    between atoms: _162  and  _165
REMARK   64  A    between atoms: _165  and  _166
REMARK   65  A    between atoms: _169  and  _171
REMARK   66  A    between atoms: _171  and  _172
REMARK   67  A    between atoms: _171  and  _174
REMARK   68  A    between atoms: _174  and  _175
REMARK   69  A    between atoms: _180  and  _182
REMARK   70  A    between atoms: _182  and  _183
REMARK   71  A    between atoms: _185  and  _187
REMARK   72  A    between atoms: _187  and  _188
REMARK   73  A    between atoms: _187  and  _190
REMARK   74  A    between atoms: _190  and  _191
REMARK   75  A    between atoms: _194  and  _196
REMARK   76  A    between atoms: _196  and  _197
REMARK   77  A    between atoms: _196  and  _199
REMARK   78  A    between atoms: _199  and  _200
REMARK   79  A    between atoms: _200  and  _201
REMARK   80  A    between atoms: _203  and  _205
REMARK   81  A    between atoms: _205  and  _206
REMARK   82  A    between atoms: _205  and  _208
REMARK   83  A    between atoms: _208  and  _209
REMARK   84  A    between atoms: _209  and  _210
REMARK   85  A    between atoms: _210  and  _211
REMARK   86  A    between atoms: _220  and  _222
REMARK   87  A    between atoms: _222  and  _223
REMARK   88  A    between atoms: _222  and  _225
REMARK   89  A    between atoms: _228  and  _230
REMARK   90  A    between atoms: _230  and  _231
REMARK   91  A    between atoms: _230  and  _233
REMARK   92  A    between atoms: _233  and  _234
REMARK   93  A    between atoms: _234  and  _235
REMARK   94  A    between atoms: _235  and  _236
REMARK   95  A    between atoms: _245  and  _247
REMARK   96  A    between atoms: _247  and  _248
REMARK   97  A    between atoms: _250  and  _252
REMARK   98  A    between atoms: _252  and  _253
REMARK   99  A    between atoms: _252  and  _255
REMARK  100  A    between atoms: _255  and  _256
REMARK  101  A    between atoms: _262  and  _264
REMARK  102  A    between atoms: _264  and  _265
REMARK  103  A    between atoms: _264  and  _267
REMARK  104  A    between atoms: _267  and  _268
REMARK  105  A    between atoms: _271  and  _273
REMARK  106  A    between atoms: _273  and  _274
REMARK  107  A    between atoms: _273  and  _276
REMARK  108  A    between atoms: _276  and  _277
REMARK  109  A    between atoms: _277  and  _278
REMARK  110  A    between atoms: _283  and  _285
REMARK  111  A    between atoms: _285  and  _286
REMARK  112  A    between atoms: _285  and  _288
REMARK  113  A    between atoms: _288  and  _289
REMARK  114  A    between atoms: _292  and  _294
REMARK  115  A    between atoms: _294  and  _295
REMARK  116  A    between atoms: _294  and  _297
REMARK  117  A    between atoms: _297  and  _298
REMARK  118  A    between atoms: _301  and  _303
REMARK  119  A    between atoms: _303  and  _304
REMARK  120  A    between atoms: _307  and  _309
REMARK  121  A    between atoms: _309  and  _310
REMARK  122  A    between atoms: _309  and  _312
REMARK  123  A    between atoms: _312  and  _313
REMARK  124  A    between atoms: _317  and  ZN_632
REMARK  125  A    between atoms: _318  and  _320
REMARK  126  A    between atoms: _320  and  _321
REMARK  127  A    between atoms: _320  and  _323
REMARK  128  A    between atoms: _323  and  _324
REMARK  129  A    between atoms: _327  and  _329
REMARK  130  A    between atoms: _329  and  _330
REMARK  131  A    between atoms: _329  and  _332
REMARK  132  A    between atoms: _332  and  _333
REMARK  133  A    between atoms: _335  and  _337
REMARK  134  A    between atoms: _337  and  _338
REMARK  135  A    between atoms: _337  and  _340
REMARK  136  A    between atoms: _340  and  _341
REMARK  137  A    between atoms: _341  and  _342
REMARK  138  A    between atoms: _345  and  _347
REMARK  139  A    between atoms: _347  and  _348
REMARK  140  A    between atoms: _350  and  _352
REMARK  141  A    between atoms: _352  and  _353
REMARK  142  A    between atoms: _356  and  _358
REMARK  143  A    between atoms: _358  and  _359
REMARK  144  A    between atoms: _358  and  _361
REMARK  145  A    between atoms: _361  and  _362
REMARK  146  A    between atoms: _368  and  _370
REMARK  147  A    between atoms: _370  and  _371
REMARK  148  A    between atoms: _370  and  _373
REMARK  149  A    between atoms: _373  and  _374
REMARK  150  A    between atoms: _379  and  _380
REMARK  151  A    between atoms: _382  and  _384
REMARK  152  A    between atoms: _384  and  _385
REMARK  153  A    between atoms: _384  and  _387
REMARK  154  A    between atoms: _387  and  _388
REMARK  155  A    between atoms: _388  and  _389
REMARK  156  A    between atoms: _389  and  _390
REMARK  157  A    between atoms: _390  and  _391
REMARK  158  A    between atoms: _395  and  _397
REMARK  159  A    between atoms: _397  and  _398
REMARK  160  A    between atoms: _397  and  _400
REMARK  161  A    between atoms: _400  and  _401
REMARK  162  A    between atoms: _404  and  _406
REMARK  163  A    between atoms: _406  and  _407
REMARK  164  A    between atoms: _406  and  _409
REMARK  165  A    between atoms: _409  and  _410
REMARK  166  A    between atoms: _410  and  _411
REMARK  167  A    between atoms: _414  and  _416
REMARK  168  A    between atoms: _416  and  _417
REMARK  169  A    between atoms: _416  and  _419
REMARK  170  A    between atoms: _419  and  _420
REMARK  171  A    between atoms: _430  and  _432
REMARK  172  A    between atoms: _432  and  _433
REMARK  173  A    between atoms: _432  and  _435
REMARK  174  A    between atoms: _435  and  _436
REMARK  175  A    between atoms: _436  and  _437
REMARK  176  A    between atoms: _442  and  _444
REMARK  177  A    between atoms: _444  and  _445
REMARK  178  A    between atoms: _444  and  _447
REMARK  179  A    between atoms: _449  and  _451
REMARK  180  A    between atoms: _451  and  _452
REMARK  181  A    between atoms: _454  and  _456
REMARK  182  A    between atoms: _456  and  _457
REMARK  183  A    between atoms: _456  and  _459
REMARK  184  A    between atoms: _459  and  _460
REMARK  185  A    between atoms: _463  and  _465
REMARK  186  A    between atoms: _465  and  _466
REMARK  187  A    between atoms: _465  and  _468
REMARK  188  A    between atoms: _471  and  _473
REMARK  189  A    between atoms: _473  and  _474
REMARK  190  A    between atoms: _473  and  _476
REMARK  191  A    between atoms: _476  and  _477
REMARK  192  A    between atoms: _477  and  _478
REMARK  193  A    between atoms: _483  and  _485
REMARK  194  A    between atoms: _485  and  _486
REMARK  195  A    between atoms: _485  and  _488
REMARK  196  A    between atoms: _488  and  _489
REMARK  197  A    between atoms: _492  and  _494
REMARK  198  A    between atoms: _494  and  _495
REMARK  199  A    between atoms: _494  and  _497
REMARK  200  A    between atoms: _497  and  _498
REMARK  201  A    between atoms: _501  and  _503
REMARK  202  A    between atoms: _503  and  _504
REMARK  203  A    between atoms: _503  and  _506
REMARK  204  A    between atoms: _506  and  _507
REMARK  205  A    between atoms: _507  and  _508
REMARK  206  A    between atoms: _510  and  _512
REMARK  207  A    between atoms: _512  and  _513
REMARK  208  A    between atoms: _512  and  _515
REMARK  209  A    between atoms: _515  and  _516
REMARK  210  A    between atoms: _519  and  _521
REMARK  211  A    between atoms: _521  and  _522
REMARK  212  A    between atoms: _521  and  _524
REMARK  213  A    between atoms: _524  and  _525
REMARK  214  A    between atoms: _526  and  ZN_632
REMARK  215  A    between atoms: _530  and  _532
REMARK  216  A    between atoms: _532  and  _533
REMARK  217  A    between atoms: _532  and  _535
REMARK  218  A    between atoms: _535  and  _536
REMARK  219  A    between atoms: _536  and  _537
REMARK  220  A    between atoms: _537  and  _538
REMARK  221  A    between atoms: _547  and  _549
REMARK  222  A    between atoms: _549  and  _550
REMARK  223  A    between atoms: _553  and  _555
REMARK  224  A    between atoms: _555  and  _556
REMARK  225  A    between atoms: _555  and  _558
REMARK  226  A    between atoms: _558  and  _559
REMARK  227  A    between atoms: _562  and  _564
REMARK  228  A    between atoms: _564  and  _565
REMARK  229  A    between atoms: _564  and  _567
REMARK  230  A    between atoms: _567  and  _568
REMARK  231  A    between atoms: _571  and  _573
REMARK  232  A    between atoms: _573  and  _574
REMARK  233  A    between atoms: _576  and  _578
REMARK  234  A    between atoms: _578  and  _579
REMARK  235  A    between atoms: _578  and  _581
REMARK  236  A    between atoms: _581  and  _582
REMARK  237  A    between atoms: _584  and  _586
REMARK  238  A    between atoms: _586  and  _587
REMARK  239  A    between atoms: _586  and  _589
REMARK  240  A    between atoms: _589  and  _590
REMARK  241  A    between atoms: _590  and  _591
REMARK  242  A    between atoms: _593  and  _595
REMARK  243  A    between atoms: _595  and  _596
REMARK  244  A    between atoms: _595  and  _598
REMARK  245  A    between atoms: _598  and  _599
REMARK  246  A    between atoms: _599  and  _600
REMARK  247  A    between atoms: _603  and  _605
REMARK  248  A    between atoms: _605  and  _606
REMARK  249  A    between atoms: _605  and  _608
REMARK  250  A    between atoms: _608  and  _609
REMARK  251  A    between atoms: _609  and  _610
REMARK  252  A    between atoms: _610  and  _611
REMARK  253  A    between atoms: _620  and  _622
REMARK  254  A    between atoms: _622  and  _623
REMARK  255  A    between atoms: _622  and  _625
REMARK  256  A    between atoms: _625  and  _626
REMARK                            x       y       z     vdW  Elec       q    Type
REMARK                         _______ _______ _______ _____ _____    ______ ____
ROOT
ATOM      1  O   HOH     1     -13.189 -38.839  12.050  0.00  0.00    +0.000 OA
ENDROOT
TORSDOF 0
REMARK  Name = ../refined-set-2016/4hwp/4hwp_pocket.pdb
REMARK  256 active torsions:
REMARK  status: ('A' for Active; 'I' for Inactive)
REMARK    1  A    between atoms: _1  and  _3
REMARK    2  A    between atoms: _3  and  _4
REMARK    3  A    between atoms: _6  and  _8
REMARK    4  A    between atoms: _8  and  _9
REMARK    5  A    between atoms: _8  and  _11
REMARK    6  A    between atoms: _11  and  _12
REMARK    7  A    between atoms: _17  and  _19
REMARK    8  A    between atoms: _19  and  _20
REMARK    9  A    between atoms: _19  and  _22
REMARK   10  A    between atoms: _22  and  _23
REMARK   11  A    between atoms: _28  and  _29
REMARK   12  A    between atoms: _31  and  _33
REMARK   13  A    between atoms: _33  and  _34
REMARK   14  A    between atoms: _38  and  _39
REMARK   15  A    between atoms: _44  and  _46
REMARK   16  A    between atoms: _46  and  _47
REMARK   17  A    between atoms: _46  and  _49
REMARK   18  A    between atoms: _49  and  _50
REMARK   19  A    between atoms: _50  and  _51
REMARK   20  A    between atoms: _53  and  _55
REMARK   21  A    between atoms: _55  and  _56
REMARK   22  A    between atoms: _55  and  _58
REMARK   23  A    between atoms: _58  and  _59
REMARK   24  A    between atoms: _64  and  _66
REMARK   25  A    between atoms: _66  and  _67
REMARK   26  A    between atoms: _66  and  _69
REMARK   27  A    between atoms: _69  and  _70
REMARK   28  A    between atoms: _70  and  ZN_632
REMARK   29  A    between atoms: _72  and  _73
REMARK   30  A    between atoms: _78  and  _80
REMARK   31  A    between atoms: _80  and  _81
REMARK   32  A    between atoms: _80  and  _83
REMARK   33  A    between atoms: _83  and  _84
REMARK   34  A    between atoms: _89  and  _91
REMARK   35  A    between atoms: _91  and  _92
REMARK   36  A    between atoms: _91  and  _94
REMARK   37  A    between atoms: _96  and  _98
REMARK   38  A    between atoms: _98  and  _99
REMARK   39  A    between atoms: _98  and  _101
REMARK   40  A    between atoms: _101  and  _102
REMARK   41  A    between atoms: _107  and  _109
REMARK   42  A    between atoms: _109  and  _110
REMARK   43  A    between atoms: _109  and  _112
REMARK   44  A    between atoms: _112  and  _113
REMARK   45  A    between atoms: _113  and  _114
REMARK   46  A    between atoms: _114  and  _115
REMARK   47  A    between atoms: _124  and  _126
REMARK   48  A    between atoms: _126  and  _127
REMARK   49  A    between atoms: _126  and  _129
REMARK   50  A    between atoms: _129  and  _130
REMARK   51  A    between atoms: _135  and  _137
REMARK   52  A    between atoms: _137  and  _138
REMARK   53  A    between atoms: _137  and  _140
REMARK   54  A    between atoms: _140  and  _141
REMARK   55  A    between atoms: _141  and  _142
REMARK   56  A    between atoms: _146  and  _147
REMARK   57  A    between atoms: _152  and  _154
REMARK   58  A    between atoms: _154  and  _155
REMARK   59  A    between atoms: _154  and  _157
REMARK   60  A    between atoms: _157  and  _158
REMARK   61  A    between atoms: _160  and  _162
REMARK   62  A    between atoms: _162  and  _163
REMARK   63  A    between atoms: _162  and  _165
REMARK   64  A    between atoms: _165  and  _166
REMARK   65  A    between atoms: _169  and  _171
REMARK   66  A    between atoms: _171  and  _172
REMARK   67  A    between atoms: _171  and  _174
REMARK   68  A    between atoms: _174  and  _175
REMARK   69  A    between atoms: _180  and  _182
REMARK   70  A    between atoms: _182  and  _183
REMARK   71  A    between atoms: _185  and  _187
REMARK   72  A    between atoms: _187  and  _188
REMARK   73  A    between atoms: _187  and  _190
REMARK   74  A    between atoms: _190  and  _191
REMARK   75  A    between atoms: _194  and  _196
REMARK   76  A    between atoms: _196  and  _197
REMARK   77  A    between atoms: _196  and  _199
REMARK   78  A    between atoms: _199  and  _200
REMARK   79  A    between atoms: _200  and  _201
REMARK   80  A    between atoms: _203  and  _205
REMARK   81  A    between atoms: _205  and  _206
REMARK   82  A    between atoms: _205  and  _208
REMARK   83  A    between atoms: _208  and  _209
REMARK   84  A    between atoms: _209  and  _210
REMARK   85  A    between atoms: _210  and  _211
REMARK   86  A    between atoms: _220  and  _222
REMARK   87  A    between atoms: _222  and  _223
REMARK   88  A    between atoms: _222  and  _225
REMARK   89  A    between atoms: _228  and  _230
REMARK   90  A    between atoms: _230  and  _231
REMARK   91  A    between atoms: _230  and  _233
REMARK   92  A    between atoms: _233  and  _234
REMARK   93  A    between atoms: _234  and  _235
REMARK   94  A    between atoms: _235  and  _236
REMARK   95  A    between atoms: _245  and  _247
REMARK   96  A    between atoms: _247  and  _248
REMARK   97  A    between atoms: _250  and  _252
REMARK   98  A    between atoms: _252  and  _253
REMARK   99  A    between atoms: _252  and  _255
REMARK  100  A    between atoms: _255  and  _256
REMARK  101  A    between atoms: _262  and  _264
REMARK  102  A    between atoms: _264  and  _265
REMARK  103  A    between atoms: _264  and  _267
REMARK  104  A    between atoms: _267  and  _268
REMARK  105  A    between atoms: _271  and  _273
REMARK  106  A    between atoms: _273  and  _274
REMARK  107  A    between atoms: _273  and  _276
REMARK  108  A    between atoms: _276  and  _277
REMARK  109  A    between atoms: _277  and  _278
REMARK  110  A    between atoms: _283  and  _285
REMARK  111  A    between atoms: _285  and  _286
REMARK  112  A    between atoms: _285  and  _288
REMARK  113  A    between atoms: _288  and  _289
REMARK  114  A    between atoms: _292  and  _294
REMARK  115  A    between atoms: _294  and  _295
REMARK  116  A    between atoms: _294  and  _297
REMARK  117  A    between atoms: _297  and  _298
REMARK  118  A    between atoms: _301  and  _303
REMARK  119  A    between atoms: _303  and  _304
REMARK  120  A    between atoms: _307  and  _309
REMARK  121  A    between atoms: _309  and  _310
REMARK  122  A    between atoms: _309  and  _312
REMARK  123  A    between atoms: _312  and  _313
REMARK  124  A    between atoms: _317  and  ZN_632
REMARK  125  A    between atoms: _318  and  _320
REMARK  126  A    between atoms: _320  and  _321
REMARK  127  A    between atoms: _320  and  _323
REMARK  128  A    between atoms: _323  and  _324
REMARK  129  A    between atoms: _327  and  _329
REMARK  130  A    between atoms: _329  and  _330
REMARK  131  A    between atoms: _329  and  _332
REMARK  132  A    between atoms: _332  and  _333
REMARK  133  A    between atoms: _335  and  _337
REMARK  134  A    between atoms: _337  and  _338
REMARK  135  A    between atoms: _337  and  _340
REMARK  136  A    between atoms: _340  and  _341
REMARK  137  A    between atoms: _341  and  _342
REMARK  138  A    between atoms: _345  and  _347
REMARK  139  A    between atoms: _347  and  _348
REMARK  140  A    between atoms: _350  and  _352
REMARK  141  A    between atoms: _352  and  _353
REMARK  142  A    between atoms: _356  and  _358
REMARK  143  A    between atoms: _358  and  _359
REMARK  144  A    between atoms: _358  and  _361
REMARK  145  A    between atoms: _361  and  _362
REMARK  146  A    between atoms: _368  and  _370
REMARK  147  A    between atoms: _370  and  _371
REMARK  148  A    between atoms: _370  and  _373
REMARK  149  A    between atoms: _373  and  _374
REMARK  150  A    between atoms: _379  and  _380
REMARK  151  A    between atoms: _382  and  _384
REMARK  152  A    between atoms: _384  and  _385
REMARK  153  A    between atoms: _384  and  _387
REMARK  154  A    between atoms: _387  and  _388
REMARK  155  A    between atoms: _388  and  _389
REMARK  156  A    between atoms: _389  and  _390
REMARK  157  A    between atoms: _390  and  _391
REMARK  158  A    between atoms: _395  and  _397
REMARK  159  A    between atoms: _397  and  _398
REMARK  160  A    between atoms: _397  and  _400
REMARK  161  A    between atoms: _400  and  _401
REMARK  162  A    between atoms: _404  and  _406
REMARK  163  A    between atoms: _406  and  _407
REMARK  164  A    between atoms: _406  and  _409
REMARK  165  A    between atoms: _409  and  _410
REMARK  166  A    between atoms: _410  and  _411
REMARK  167  A    between atoms: _414  and  _416
REMARK  168  A    between atoms: _416  and  _417
REMARK  169  A    between atoms: _416  and  _419
REMARK  170  A    between atoms: _419  and  _420
REMARK  171  A    between atoms: _430  and  _432
REMARK  172  A    between atoms: _432  and  _433
REMARK  173  A    between atoms: _432  and  _435
REMARK  174  A    between atoms: _435  and  _436
REMARK  175  A    between atoms: _436  and  _437
REMARK  176  A    between atoms: _442  and  _444
REMARK  177  A    between atoms: _444  and  _445
REMARK  178  A    between atoms: _444  and  _447
REMARK  179  A    between atoms: _449  and  _451
REMARK  180  A    between atoms: _451  and  _452
REMARK  181  A    between atoms: _454  and  _456
REMARK  182  A    between atoms: _456  and  _457
REMARK  183  A    between atoms: _456  and  _459
REMARK  184  A    between atoms: _459  and  _460
REMARK  185  A    between atoms: _463  and  _465
REMARK  186  A    between atoms: _465  and  _466
REMARK  187  A    between atoms: _465  and  _468
REMARK  188  A    between atoms: _471  and  _473
REMARK  189  A    between atoms: _473  and  _474
REMARK  190  A    between atoms: _473  and  _476
REMARK  191  A    between atoms: _476  and  _477
REMARK  192  A    between atoms: _477  and  _478
REMARK  193  A    between atoms: _483  and  _485
REMARK  194  A    between atoms: _485  and  _486
REMARK  195  A    between atoms: _485  and  _488
REMARK  196  A    between atoms: _488  and  _489
REMARK  197  A    between atoms: _492  and  _494
REMARK  198  A    between atoms: _494  and  _495
REMARK  199  A    between atoms: _494  and  _497
REMARK  200  A    between atoms: _497  and  _498
REMARK  201  A    between atoms: _501  and  _503
REMARK  202  A    between atoms: _503  and  _504
REMARK  203  A    between atoms: _503  and  _506
REMARK  204  A    between atoms: _506  and  _507
REMARK  205  A    between atoms: _507  and  _508
REMARK  206  A    between atoms: _510  and  _512
REMARK  207  A    between atoms: _512  and  _513
REMARK  208  A    between atoms: _512  and  _515
REMARK  209  A    between atoms: _515  and  _516
REMARK  210  A    between atoms: _519  and  _521
REMARK  211  A    between atoms: _521  and  _522
REMARK  212  A    between atoms: _521  and  _524
REMARK  213  A    between atoms: _524  and  _525
REMARK  214  A    between atoms: _526  and  ZN_632
REMARK  215  A    between atoms: _530  and  _532
REMARK  216  A    between atoms: _532  and  _533
REMARK  217  A    between atoms: _532  and  _535
REMARK  218  A    between atoms: _535  and  _536
REMARK  219  A    between atoms: _536  and  _537
REMARK  220  A    between atoms: _537  and  _538
REMARK  221  A    between atoms: _547  and  _549
REMARK  222  A    between atoms: _549  and  _550
REMARK  223  A    between atoms: _553  and  _555
REMARK  224  A    between atoms: _555  and  _556
REMARK  225  A    between atoms: _555  and  _558
REMARK  226  A    between atoms: _558  and  _559
REMARK  227  A    between atoms: _562  and  _564
REMARK  228  A    between atoms: _564  and  _565
REMARK  229  A    between atoms: _564  and  _567
REMARK  230  A    between atoms: _567  and  _568
REMARK  231  A    between atoms: _571  and  _573
REMARK  232  A    between atoms: _573  and  _574
REMARK  233  A    between atoms: _576  and  _578
REMARK  234  A    between atoms: _578  and  _579
REMARK  235  A    between atoms: _578  and  _581
REMARK  236  A    between atoms: _581  and  _582
REMARK  237  A    between atoms: _584  and  _586
REMARK  238  A    between atoms: _586  and  _587
REMARK  239  A    between atoms: _586  and  _589
REMARK  240  A    between atoms: _589  and  _590
REMARK  241  A    between atoms: _590  and  _591
REMARK  242  A    between atoms: _593  and  _595
REMARK  243  A    between atoms: _595  and  _596
REMARK  244  A    between atoms: _595  and  _598
REMARK  245  A    between atoms: _598  and  _599
REMARK  246  A    between atoms: _599  and  _600
REMARK  247  A    between atoms: _603  and  _605
REMARK  248  A    between atoms: _605  and  _606
REMARK  249  A    between atoms: _605  and  _608
REMARK  250  A    between atoms: _608  and  _609
REMARK  251  A    between atoms: _609  and  _610
REMARK  252  A    between atoms: _610  and  _611
REMARK  253  A    between atoms: _620  and  _622
REMARK  254  A    between atoms: _622  and  _623
REMARK  255  A    between atoms: _622  and  _625
REMARK  256  A    between atoms: _625  and  _626
REMARK                            x       y       z     vdW  Elec       q    Type
REMARK                         _______ _______ _______ _____ _____    ______ ____
ROOT
ATOM      1  O   HOH     1     -17.432 -38.854   9.727  0.00  0.00    +0.000 OA
ENDROOT
TORSDOF 0
REMARK  Name = ../refined-set-2016/4hwp/4hwp_pocket.pdb
REMARK  256 active torsions:
REMARK  status: ('A' for Active; 'I' for Inactive)
REMARK    1  A    between atoms: _1  and  _3
REMARK    2  A    between atoms: _3  and  _4
REMARK    3  A    between atoms: _6  and  _8
REMARK    4  A    between atoms: _8  and  _9
REMARK    5  A    between atoms: _8  and  _11
REMARK    6  A    between atoms: _11  and  _12
REMARK    7  A    between atoms: _17  and  _19
REMARK    8  A    between atoms: _19  and  _20
REMARK    9  A    between atoms: _19  and  _22
REMARK   10  A    between atoms: _22  and  _23
REMARK   11  A    between atoms: _28  and  _29
REMARK   12  A    between atoms: _31  and  _33
REMARK   13  A    between atoms: _33  and  _34
REMARK   14  A    between atoms: _38  and  _39
REMARK   15  A    between atoms: _44  and  _46
REMARK   16  A    between atoms: _46  and  _47
REMARK   17  A    between atoms: _46  and  _49
REMARK   18  A    between atoms: _49  and  _50
REMARK   19  A    between atoms: _50  and  _51
REMARK   20  A    between atoms: _53  and  _55
REMARK   21  A    between atoms: _55  and  _56
REMARK   22  A    between atoms: _55  and  _58
REMARK   23  A    between atoms: _58  and  _59
REMARK   24  A    between atoms: _64  and  _66
REMARK   25  A    between atoms: _66  and  _67
REMARK   26  A    between atoms: _66  and  _69
REMARK   27  A    between atoms: _69  and  _70
REMARK   28  A    between atoms: _70  and  ZN_632
REMARK   29  A    between atoms: _72  and  _73
REMARK   30  A    between atoms: _78  and  _80
REMARK   31  A    between atoms: _80  and  _81
REMARK   32  A    between atoms: _80  and  _83
REMARK   33  A    between atoms: _83  and  _84
REMARK   34  A    between atoms: _89  and  _91
REMARK   35  A    between atoms: _91  and  _92
REMARK   36  A    between atoms: _91  and  _94
REMARK   37  A    between atoms: _96  and  _98
REMARK   38  A    between atoms: _98  and  _99
REMARK   39  A    between atoms: _98  and  _101
REMARK   40  A    between atoms: _101  and  _102
REMARK   41  A    between atoms: _107  and  _109
REMARK   42  A    between atoms: _109  and  _110
REMARK   43  A    between atoms: _109  and  _112
REMARK   44  A    between atoms: _112  and  _113
REMARK   45  A    between atoms: _113  and  _114
REMARK   46  A    between atoms: _114  and  _115
REMARK   47  A    between atoms: _124  and  _126
REMARK   48  A    between atoms: _126  and  _127
REMARK   49  A    between atoms: _126  and  _129
REMARK   50  A    between atoms: _129  and  _130
REMARK   51  A    between atoms: _135  and  _137
REMARK   52  A    between atoms: _137  and  _138
REMARK   53  A    between atoms: _137  and  _140
REMARK   54  A    between atoms: _140  and  _141
REMARK   55  A    between atoms: _141  and  _142
REMARK   56  A    between atoms: _146  and  _147
REMARK   57  A    between atoms: _152  and  _154
REMARK   58  A    between atoms: _154  and  _155
REMARK   59  A    between atoms: _154  and  _157
REMARK   60  A    between atoms: _157  and  _158
REMARK   61  A    between atoms: _160  and  _162
REMARK   62  A    between atoms: _162  and  _163
REMARK   63  A    between atoms: _162  and  _165
REMARK   64  A    between atoms: _165  and  _166
REMARK   65  A    between atoms: _169  and  _171
REMARK   66  A    between atoms: _171  and  _172
REMARK   67  A    between atoms: _171  and  _174
REMARK   68  A    between atoms: _174  and  _175
REMARK   69  A    between atoms: _180  and  _182
REMARK   70  A    between atoms: _182  and  _183
REMARK   71  A    between atoms: _185  and  _187
REMARK   72  A    between atoms: _187  and  _188
REMARK   73  A    between atoms: _187  and  _190
REMARK   74  A    between atoms: _190  and  _191
REMARK   75  A    between atoms: _194  and  _196
REMARK   76  A    between atoms: _196  and  _197
REMARK   77  A    between atoms: _196  and  _199
REMARK   78  A    between atoms: _199  and  _200
REMARK   79  A    between atoms: _200  and  _201
REMARK   80  A    between atoms: _203  and  _205
REMARK   81  A    between atoms: _205  and  _206
REMARK   82  A    between atoms: _205  and  _208
REMARK   83  A    between atoms: _208  and  _209
REMARK   84  A    between atoms: _209  and  _210
REMARK   85  A    between atoms: _210  and  _211
REMARK   86  A    between atoms: _220  and  _222
REMARK   87  A    between atoms: _222  and  _223
REMARK   88  A    between atoms: _222  and  _225
REMARK   89  A    between atoms: _228  and  _230
REMARK   90  A    between atoms: _230  and  _231
REMARK   91  A    between atoms: _230  and  _233
REMARK   92  A    between atoms: _233  and  _234
REMARK   93  A    between atoms: _234  and  _235
REMARK   94  A    between atoms: _235  and  _236
REMARK   95  A    between atoms: _245  and  _247
REMARK   96  A    between atoms: _247  and  _248
REMARK   97  A    between atoms: _250  and  _252
REMARK   98  A    between atoms: _252  and  _253
REMARK   99  A    between atoms: _252  and  _255
REMARK  100  A    between atoms: _255  and  _256
REMARK  101  A    between atoms: _262  and  _264
REMARK  102  A    between atoms: _264  and  _265
REMARK  103  A    between atoms: _264  and  _267
REMARK  104  A    between atoms: _267  and  _268
REMARK  105  A    between atoms: _271  and  _273
REMARK  106  A    between atoms: _273  and  _274
REMARK  107  A    between atoms: _273  and  _276
REMARK  108  A    between atoms: _276  and  _277
REMARK  109  A    between atoms: _277  and  _278
REMARK  110  A    between atoms: _283  and  _285
REMARK  111  A    between atoms: _285  and  _286
REMARK  112  A    between atoms: _285  and  _288
REMARK  113  A    between atoms: _288  and  _289
REMARK  114  A    between atoms: _292  and  _294
REMARK  115  A    between atoms: _294  and  _295
REMARK  116  A    between atoms: _294  and  _297
REMARK  117  A    between atoms: _297  and  _298
REMARK  118  A    between atoms: _301  and  _303
REMARK  119  A    between atoms: _303  and  _304
REMARK  120  A    between atoms: _307  and  _309
REMARK  121  A    between atoms: _309  and  _310
REMARK  122  A    between atoms: _309  and  _312
REMARK  123  A    between atoms: _312  and  _313
REMARK  124  A    between atoms: _317  and  ZN_632
REMARK  125  A    between atoms: _318  and  _320
REMARK  126  A    between atoms: _320  and  _321
REMARK  127  A    between atoms: _320  and  _323
REMARK  128  A    between atoms: _323  and  _324
REMARK  129  A    between atoms: _327  and  _329
REMARK  130  A    between atoms: _329  and  _330
REMARK  131  A    between atoms: _329  and  _332
REMARK  132  A    between atoms: _332  and  _333
REMARK  133  A    between atoms: _335  and  _337
REMARK  134  A    between atoms: _337  and  _338
REMARK  135  A    between atoms: _337  and  _340
REMARK  136  A    between atoms: _340  and  _341
REMARK  137  A    between atoms: _341  and  _342
REMARK  138  A    between atoms: _345  and  _347
REMARK  139  A    between atoms: _347  and  _348
REMARK  140  A    between atoms: _350  and  _352
REMARK  141  A    between atoms: _352  and  _353
REMARK  142  A    between atoms: _356  and  _358
REMARK  143  A    between atoms: _358  and  _359
REMARK  144  A    between atoms: _358  and  _361
REMARK  145  A    between atoms: _361  and  _362
REMARK  146  A    between atoms: _368  and  _370
REMARK  147  A    between atoms: _370  and  _371
REMARK  148  A    between atoms: _370  and  _373
REMARK  149  A    between atoms: _373  and  _374
REMARK  150  A    between atoms: _379  and  _380
REMARK  151  A    between atoms: _382  and  _384
REMARK  152  A    between atoms: _384  and  _385
REMARK  153  A    between atoms: _384  and  _387
REMARK  154  A    between atoms: _387  and  _388
REMARK  155  A    between atoms: _388  and  _389
REMARK  156  A    between atoms: _389  and  _390
REMARK  157  A    between atoms: _390  and  _391
REMARK  158  A    between atoms: _395  and  _397
REMARK  159  A    between atoms: _397  and  _398
REMARK  160  A    between atoms: _397  and  _400
REMARK  161  A    between atoms: _400  and  _401
REMARK  162  A    between atoms: _404  and  _406
REMARK  163  A    between atoms: _406  and  _407
REMARK  164  A    between atoms: _406  and  _409
REMARK  165  A    between atoms: _409  and  _410
REMARK  166  A    between atoms: _410  and  _411
REMARK  167  A    between atoms: _414  and  _416
REMARK  168  A    between atoms: _416  and  _417
REMARK  169  A    between atoms: _416  and  _419
REMARK  170  A    between atoms: _419  and  _420
REMARK  171  A    between atoms: _430  and  _432
REMARK  172  A    between atoms: _432  and  _433
REMARK  173  A    between atoms: _432  and  _435
REMARK  174  A    between atoms: _435  and  _436
REMARK  175  A    between atoms: _436  and  _437
REMARK  176  A    between atoms: _442  and  _444
REMARK  177  A    between atoms: _444  and  _445
REMARK  178  A    between atoms: _444  and  _447
REMARK  179  A    between atoms: _449  and  _451
REMARK  180  A    between atoms: _451  and  _452
REMARK  181  A    between atoms: _454  and  _456
REMARK  182  A    between atoms: _456  and  _457
REMARK  183  A    between atoms: _456  and  _459
REMARK  184  A    between atoms: _459  and  _460
REMARK  185  A    between atoms: _463  and  _465
REMARK  186  A    between atoms: _465  and  _466
REMARK  187  A    between atoms: _465  and  _468
REMARK  188  A    between atoms: _471  and  _473
REMARK  189  A    between atoms: _473  and  _474
REMARK  190  A    between atoms: _473  and  _476
REMARK  191  A    between atoms: _476  and  _477
REMARK  192  A    between atoms: _477  and  _478
REMARK  193  A    between atoms: _483  and  _485
REMARK  194  A    between atoms: _485  and  _486
REMARK  195  A    between atoms: _485  and  _488
REMARK  196  A    between atoms: _488  and  _489
REMARK  197  A    between atoms: _492  and  _494
REMARK  198  A    between atoms: _494  and  _495
REMARK  199  A    between atoms: _494  and  _497
REMARK  200  A    between atoms: _497  and  _498
REMARK  201  A    between atoms: _501  and  _503
REMARK  202  A    between atoms: _503  and  _504
REMARK  203  A    between atoms: _503  and  _506
REMARK  204  A    between atoms: _506  and  _507
REMARK  205  A    between atoms: _507  and  _508
REMARK  206  A    between atoms: _510  and  _512
REMARK  207  A    between atoms: _512  and  _513
REMARK  208  A    between atoms: _512  and  _515
REMARK  209  A    between atoms: _515  and  _516
REMARK  210  A    between atoms: _519  and  _521
REMARK  211  A    between atoms: _521  and  _522
REMARK  212  A    between atoms: _521  and  _524
REMARK  213  A    between atoms: _524  and  _525
REMARK  214  A    between atoms: _526  and  ZN_632
REMARK  215  A    between atoms: _530  and  _532
REMARK  216  A    between atoms: _532  and  _533
REMARK  217  A    between atoms: _532  and  _535
REMARK  218  A    between atoms: _535  and  _536
REMARK  219  A    between atoms: _536  and  _537
REMARK  220  A    between atoms: _537  and  _538
REMARK  221  A    between atoms: _547  and  _549
REMARK  222  A    between atoms: _549  and  _550
REMARK  223  A    between atoms: _553  and  _555
REMARK  224  A    between atoms: _555  and  _556
REMARK  225  A    between atoms: _555  and  _558
REMARK  226  A    between atoms: _558  and  _559
REMARK  227  A    between atoms: _562  and  _564
REMARK  228  A    between atoms: _564  and  _565
REMARK  229  A    between atoms: _564  and  _567
REMARK  230  A    between atoms: _567  and  _568
REMARK  231  A    between atoms: _571  and  _573
REMARK  232  A    between atoms: _573  and  _574
REMARK  233  A    between atoms: _576  and  _578
REMARK  234  A    between atoms: _578  and  _579
REMARK  235  A    between atoms: _578  and  _581
REMARK  236  A    between atoms: _581  and  _582
REMARK  237  A    between atoms: _584  and  _586
REMARK  238  A    between atoms: _586  and  _587
REMARK  239  A    between atoms: _586  and  _589
REMARK  240  A    between atoms: _589  and  _590
REMARK  241  A    between atoms: _590  and  _591
REMARK  242  A    between atoms: _593  and  _595
REMARK  243  A    between atoms: _595  and  _596
REMARK  244  A    between atoms: _595  and  _598
REMARK  245  A    between atoms: _598  and  _599
REMARK  246  A    between atoms: _599  and  _600
REMARK  247  A    between atoms: _603  and  _605
REMARK  248  A    between atoms: _605  and  _606
REMARK  249  A    between atoms: _605  and  _608
REMARK  250  A    between atoms: _608  and  _609
REMARK  251  A    between atoms: _609  and  _610
REMARK  252  A    between atoms: _610  and  _611
REMARK  253  A    between atoms: _620  and  _622
REMARK  254  A    between atoms: _622  and  _623
REMARK  255  A    between atoms: _622  and  _625
REMARK  256  A    between atoms: _625  and  _626
REMARK                            x       y       z     vdW  Elec       q    Type
REMARK                         _______ _______ _______ _____ _____    ______ ____
ROOT
ATOM      1  O   HOH     1     -19.802 -38.907   8.647  0.00  0.00    +0.000 OA
ENDROOT
TORSDOF 0
REMARK  Name = ../refined-set-2016/4hwp/4hwp_pocket.pdb
REMARK  256 active torsions:
REMARK  status: ('A' for Active; 'I' for Inactive)
REMARK    1  A    between atoms: _1  and  _3
REMARK    2  A    between atoms: _3  and  _4
REMARK    3  A    between atoms: _6  and  _8
REMARK    4  A    between atoms: _8  and  _9
REMARK    5  A    between atoms: _8  and  _11
REMARK    6  A    between atoms: _11  and  _12
REMARK    7  A    between atoms: _17  and  _19
REMARK    8  A    between atoms: _19  and  _20
REMARK    9  A    between atoms: _19  and  _22
REMARK   10  A    between atoms: _22  and  _23
REMARK   11  A    between atoms: _28  and  _29
REMARK   12  A    between atoms: _31  and  _33
REMARK   13  A    between atoms: _33  and  _34
REMARK   14  A    between atoms: _38  and  _39
REMARK   15  A    between atoms: _44  and  _46
REMARK   16  A    between atoms: _46  and  _47
REMARK   17  A    between atoms: _46  and  _49
REMARK   18  A    between atoms: _49  and  _50
REMARK   19  A    between atoms: _50  and  _51
REMARK   20  A    between atoms: _53  and  _55
REMARK   21  A    between atoms: _55  and  _56
REMARK   22  A    between atoms: _55  and  _58
REMARK   23  A    between atoms: _58  and  _59
REMARK   24  A    between atoms: _64  and  _66
REMARK   25  A    between atoms: _66  and  _67
REMARK   26  A    between atoms: _66  and  _69
REMARK   27  A    between atoms: _69  and  _70
REMARK   28  A    between atoms: _70  and  ZN_632
REMARK   29  A    between atoms: _72  and  _73
REMARK   30  A    between atoms: _78  and  _80
REMARK   31  A    between atoms: _80  and  _81
REMARK   32  A    between atoms: _80  and  _83
REMARK   33  A    between atoms: _83  and  _84
REMARK   34  A    between atoms: _89  and  _91
REMARK   35  A    between atoms: _91  and  _92
REMARK   36  A    between atoms: _91  and  _94
REMARK   37  A    between atoms: _96  and  _98
REMARK   38  A    between atoms: _98  and  _99
REMARK   39  A    between atoms: _98  and  _101
REMARK   40  A    between atoms: _101  and  _102
REMARK   41  A    between atoms: _107  and  _109
REMARK   42  A    between atoms: _109  and  _110
REMARK   43  A    between atoms: _109  and  _112
REMARK   44  A    between atoms: _112  and  _113
REMARK   45  A    between atoms: _113  and  _114
REMARK   46  A    between atoms: _114  and  _115
REMARK   47  A    between atoms: _124  and  _126
REMARK   48  A    between atoms: _126  and  _127
REMARK   49  A    between atoms: _126  and  _129
REMARK   50  A    between atoms: _129  and  _130
REMARK   51  A    between atoms: _135  and  _137
REMARK   52  A    between atoms: _137  and  _138
REMARK   53  A    between atoms: _137  and  _140
REMARK   54  A    between atoms: _140  and  _141
REMARK   55  A    between atoms: _141  and  _142
REMARK   56  A    between atoms: _146  and  _147
REMARK   57  A    between atoms: _152  and  _154
REMARK   58  A    between atoms: _154  and  _155
REMARK   59  A    between atoms: _154  and  _157
REMARK   60  A    between atoms: _157  and  _158
REMARK   61  A    between atoms: _160  and  _162
REMARK   62  A    between atoms: _162  and  _163
REMARK   63  A    between atoms: _162  and  _165
REMARK   64  A    between atoms: _165  and  _166
REMARK   65  A    between atoms: _169  and  _171
REMARK   66  A    between atoms: _171  and  _172
REMARK   67  A    between atoms: _171  and  _174
REMARK   68  A    between atoms: _174  and  _175
REMARK   69  A    between atoms: _180  and  _182
REMARK   70  A    between atoms: _182  and  _183
REMARK   71  A    between atoms: _185  and  _187
REMARK   72  A    between atoms: _187  and  _188
REMARK   73  A    between atoms: _187  and  _190
REMARK   74  A    between atoms: _190  and  _191
REMARK   75  A    between atoms: _194  and  _196
REMARK   76  A    between atoms: _196  and  _197
REMARK   77  A    between atoms: _196  and  _199
REMARK   78  A    between atoms: _199  and  _200
REMARK   79  A    between atoms: _200  and  _201
REMARK   80  A    between atoms: _203  and  _205
REMARK   81  A    between atoms: _205  and  _206
REMARK   82  A    between atoms: _205  and  _208
REMARK   83  A    between atoms: _208  and  _209
REMARK   84  A    between atoms: _209  and  _210
REMARK   85  A    between atoms: _210  and  _211
REMARK   86  A    between atoms: _220  and  _222
REMARK   87  A    between atoms: _222  and  _223
REMARK   88  A    between atoms: _222  and  _225
REMARK   89  A    between atoms: _228  and  _230
REMARK   90  A    between atoms: _230  and  _231
REMARK   91  A    between atoms: _230  and  _233
REMARK   92  A    between atoms: _233  and  _234
REMARK   93  A    between atoms: _234  and  _235
REMARK   94  A    between atoms: _235  and  _236
REMARK   95  A    between atoms: _245  and  _247
REMARK   96  A    between atoms: _247  and  _248
REMARK   97  A    between atoms: _250  and  _252
REMARK   98  A    between atoms: _252  and  _253
REMARK   99  A    between atoms: _252  and  _255
REMARK  100  A    between atoms: _255  and  _256
REMARK  101  A    between atoms: _262  and  _264
REMARK  102  A    between atoms: _264  and  _265
REMARK  103  A    between atoms: _264  and  _267
REMARK  104  A    between atoms: _267  and  _268
REMARK  105  A    between atoms: _271  and  _273
REMARK  106  A    between atoms: _273  and  _274
REMARK  107  A    between atoms: _273  and  _276
REMARK  108  A    between atoms: _276  and  _277
REMARK  109  A    between atoms: _277  and  _278
REMARK  110  A    between atoms: _283  and  _285
REMARK  111  A    between atoms: _285  and  _286
REMARK  112  A    between atoms: _285  and  _288
REMARK  113  A    between atoms: _288  and  _289
REMARK  114  A    between atoms: _292  and  _294
REMARK  115  A    between atoms: _294  and  _295
REMARK  116  A    between atoms: _294  and  _297
REMARK  117  A    between atoms: _297  and  _298
REMARK  118  A    between atoms: _301  and  _303
REMARK  119  A    between atoms: _303  and  _304
REMARK  120  A    between atoms: _307  and  _309
REMARK  121  A    between atoms: _309  and  _310
REMARK  122  A    between atoms: _309  and  _312
REMARK  123  A    between atoms: _312  and  _313
REMARK  124  A    between atoms: _317  and  ZN_632
REMARK  125  A    between atoms: _318  and  _320
REMARK  126  A    between atoms: _320  and  _321
REMARK  127  A    between atoms: _320  and  _323
REMARK  128  A    between atoms: _323  and  _324
REMARK  129  A    between atoms: _327  and  _329
REMARK  130  A    between atoms: _329  and  _330
REMARK  131  A    between atoms: _329  and  _332
REMARK  132  A    between atoms: _332  and  _333
REMARK  133  A    between atoms: _335  and  _337
REMARK  134  A    between atoms: _337  and  _338
REMARK  135  A    between atoms: _337  and  _340
REMARK  136  A    between atoms: _340  and  _341
REMARK  137  A    between atoms: _341  and  _342
REMARK  138  A    between atoms: _345  and  _347
REMARK  139  A    between atoms: _347  and  _348
REMARK  140  A    between atoms: _350  and  _352
REMARK  141  A    between atoms: _352  and  _353
REMARK  142  A    between atoms: _356  and  _358
REMARK  143  A    between atoms: _358  and  _359
REMARK  144  A    between atoms: _358  and  _361
REMARK  145  A    between atoms: _361  and  _362
REMARK  146  A    between atoms: _368  and  _370
REMARK  147  A    between atoms: _370  and  _371
REMARK  148  A    between atoms: _370  and  _373
REMARK  149  A    between atoms: _373  and  _374
REMARK  150  A    between atoms: _379  and  _380
REMARK  151  A    between atoms: _382  and  _384
REMARK  152  A    between atoms: _384  and  _385
REMARK  153  A    between atoms: _384  and  _387
REMARK  154  A    between atoms: _387  and  _388
REMARK  155  A    between atoms: _388  and  _389
REMARK  156  A    between atoms: _389  and  _390
REMARK  157  A    between atoms: _390  and  _391
REMARK  158  A    between atoms: _395  and  _397
REMARK  159  A    between atoms: _397  and  _398
REMARK  160  A    between atoms: _397  and  _400
REMARK  161  A    between atoms: _400  and  _401
REMARK  162  A    between atoms: _404  and  _406
REMARK  163  A    between atoms: _406  and  _407
REMARK  164  A    between atoms: _406  and  _409
REMARK  165  A    between atoms: _409  and  _410
REMARK  166  A    between atoms: _410  and  _411
REMARK  167  A    between atoms: _414  and  _416
REMARK  168  A    between atoms: _416  and  _417
REMARK  169  A    between atoms: _416  and  _419
REMARK  170  A    between atoms: _419  and  _420
REMARK  171  A    between atoms: _430  and  _432
REMARK  172  A    between atoms: _432  and  _433
REMARK  173  A    between atoms: _432  and  _435
REMARK  174  A    between atoms: _435  and  _436
REMARK  175  A    between atoms: _436  and  _437
REMARK  176  A    between atoms: _442  and  _444
REMARK  177  A    between atoms: _444  and  _445
REMARK  178  A    between atoms: _444  and  _447
REMARK  179  A    between atoms: _449  and  _451
REMARK  180  A    between atoms: _451  and  _452
REMARK  181  A    between atoms: _454  and  _456
REMARK  182  A    between atoms: _456  and  _457
REMARK  183  A    between atoms: _456  and  _459
REMARK  184  A    between atoms: _459  and  _460
REMARK  185  A    between atoms: _463  and  _465
REMARK  186  A    between atoms: _465  and  _466
REMARK  187  A    between atoms: _465  and  _468
REMARK  188  A    between atoms: _471  and  _473
REMARK  189  A    between atoms: _473  and  _474
REMARK  190  A    between atoms: _473  and  _476
REMARK  191  A    between atoms: _476  and  _477
REMARK  192  A    between atoms: _477  and  _478
REMARK  193  A    between atoms: _483  and  _485
REMARK  194  A    between atoms: _485  and  _486
REMARK  195  A    between atoms: _485  and  _488
REMARK  196  A    between atoms: _488  and  _489
REMARK  197  A    between atoms: _492  and  _494
REMARK  198  A    between atoms: _494  and  _495
REMARK  199  A    between atoms: _494  and  _497
REMARK  200  A    between atoms: _497  and  _498
REMARK  201  A    between atoms: _501  and  _503
REMARK  202  A    between atoms: _503  and  _504
REMARK  203  A    between atoms: _503  and  _506
REMARK  204  A    between atoms: _506  and  _507
REMARK  205  A    between atoms: _507  and  _508
REMARK  206  A    between atoms: _510  and  _512
REMARK  207  A    between atoms: _512  and  _513
REMARK  208  A    between atoms: _512  and  _515
REMARK  209  A    between atoms: _515  and  _516
REMARK  210  A    between atoms: _519  and  _521
REMARK  211  A    between atoms: _521  and  _522
REMARK  212  A    between atoms: _521  and  _524
REMARK  213  A    between atoms: _524  and  _525
REMARK  214  A    between atoms: _526  and  ZN_632
REMARK  215  A    between atoms: _530  and  _532
REMARK  216  A    between atoms: _532  and  _533
REMARK  217  A    between atoms: _532  and  _535
REMARK  218  A    between atoms: _535  and  _536
REMARK  219  A    between atoms: _536  and  _537
REMARK  220  A    between atoms: _537  and  _538
REMARK  221  A    between atoms: _547  and  _549
REMARK  222  A    between atoms: _549  and  _550
REMARK  223  A    between atoms: _553  and  _555
REMARK  224  A    between atoms: _555  and  _556
REMARK  225  A    between atoms: _555  and  _558
REMARK  226  A    between atoms: _558  and  _559
REMARK  227  A    between atoms: _562  and  _564
REMARK  228  A    between atoms: _564  and  _565
REMARK  229  A    between atoms: _564  and  _567
REMARK  230  A    between atoms: _567  and  _568
REMARK  231  A    between atoms: _571  and  _573
REMARK  232  A    between atoms: _573  and  _574
REMARK  233  A    between atoms: _576  and  _578
REMARK  234  A    between atoms: _578  and  _579
REMARK  235  A    between atoms: _578  and  _581
REMARK  236  A    between atoms: _581  and  _582
REMARK  237  A    between atoms: _584  and  _586
REMARK  238  A    between atoms: _586  and  _587
REMARK  239  A    between atoms: _586  and  _589
REMARK  240  A    between atoms: _589  and  _590
REMARK  241  A    between atoms: _590  and  _591
REMARK  242  A    between atoms: _593  and  _595
REMARK  243  A    between atoms: _595  and  _596
REMARK  244  A    between atoms: _595  and  _598
REMARK  245  A    between atoms: _598  and  _599
REMARK  246  A    between atoms: _599  and  _600
REMARK  247  A    between atoms: _603  and  _605
REMARK  248  A    between atoms: _605  and  _606
REMARK  249  A    between atoms: _605  and  _608
REMARK  250  A    between atoms: _608  and  _609
REMARK  251  A    between atoms: _609  and  _610
REMARK  252  A    between atoms: _610  and  _611
REMARK  253  A    between atoms: _620  and  _622
REMARK  254  A    between atoms: _622  and  _623
REMARK  255  A    between atoms: _622  and  _625
REMARK  256  A    between atoms: _625  and  _626
REMARK                            x       y       z     vdW  Elec       q    Type
REMARK                         _______ _______ _______ _____ _____    ______ ____
ROOT
ATOM      1  O   HOH     1     -13.860 -44.620  15.239  0.00  0.00    +0.000 OA
ENDROOT
TORSDOF 0
REMARK  Name = ../refined-set-2016/4hwp/4hwp_pocket.pdb
REMARK  256 active torsions:
REMARK  status: ('A' for Active; 'I' for Inactive)
REMARK    1  A    between atoms: _1  and  _3
REMARK    2  A    between atoms: _3  and  _4
REMARK    3  A    between atoms: _6  and  _8
REMARK    4  A    between atoms: _8  and  _9
REMARK    5  A    between atoms: _8  and  _11
REMARK    6  A    between atoms: _11  and  _12
REMARK    7  A    between atoms: _17  and  _19
REMARK    8  A    between atoms: _19  and  _20
REMARK    9  A    between atoms: _19  and  _22
REMARK   10  A    between atoms: _22  and  _23
REMARK   11  A    between atoms: _28  and  _29
REMARK   12  A    between atoms: _31  and  _33
REMARK   13  A    between atoms: _33  and  _34
REMARK   14  A    between atoms: _38  and  _39
REMARK   15  A    between atoms: _44  and  _46
REMARK   16  A    between atoms: _46  and  _47
REMARK   17  A    between atoms: _46  and  _49
REMARK   18  A    between atoms: _49  and  _50
REMARK   19  A    between atoms: _50  and  _51
REMARK   20  A    between atoms: _53  and  _55
REMARK   21  A    between atoms: _55  and  _56
REMARK   22  A    between atoms: _55  and  _58
REMARK   23  A    between atoms: _58  and  _59
REMARK   24  A    between atoms: _64  and  _66
REMARK   25  A    between atoms: _66  and  _67
REMARK   26  A    between atoms: _66  and  _69
REMARK   27  A    between atoms: _69  and  _70
REMARK   28  A    between atoms: _70  and  ZN_632
REMARK   29  A    between atoms: _72  and  _73
REMARK   30  A    between atoms: _78  and  _80
REMARK   31  A    between atoms: _80  and  _81
REMARK   32  A    between atoms: _80  and  _83
REMARK   33  A    between atoms: _83  and  _84
REMARK   34  A    between atoms: _89  and  _91
REMARK   35  A    between atoms: _91  and  _92
REMARK   36  A    between atoms: _91  and  _94
REMARK   37  A    between atoms: _96  and  _98
REMARK   38  A    between atoms: _98  and  _99
REMARK   39  A    between atoms: _98  and  _101
REMARK   40  A    between atoms: _101  and  _102
REMARK   41  A    between atoms: _107  and  _109
REMARK   42  A    between atoms: _109  and  _110
REMARK   43  A    between atoms: _109  and  _112
REMARK   44  A    between atoms: _112  and  _113
REMARK   45  A    between atoms: _113  and  _114
REMARK   46  A    between atoms: _114  and  _115
REMARK   47  A    between atoms: _124  and  _126
REMARK   48  A    between atoms: _126  and  _127
REMARK   49  A    between atoms: _126  and  _129
REMARK   50  A    between atoms: _129  and  _130
REMARK   51  A    between atoms: _135  and  _137
REMARK   52  A    between atoms: _137  and  _138
REMARK   53  A    between atoms: _137  and  _140
REMARK   54  A    between atoms: _140  and  _141
REMARK   55  A    between atoms: _141  and  _142
REMARK   56  A    between atoms: _146  and  _147
REMARK   57  A    between atoms: _152  and  _154
REMARK   58  A    between atoms: _154  and  _155
REMARK   59  A    between atoms: _154  and  _157
REMARK   60  A    between atoms: _157  and  _158
REMARK   61  A    between atoms: _160  and  _162
REMARK   62  A    between atoms: _162  and  _163
REMARK   63  A    between atoms: _162  and  _165
REMARK   64  A    between atoms: _165  and  _166
REMARK   65  A    between atoms: _169  and  _171
REMARK   66  A    between atoms: _171  and  _172
REMARK   67  A    between atoms: _171  and  _174
REMARK   68  A    between atoms: _174  and  _175
REMARK   69  A    between atoms: _180  and  _182
REMARK   70  A    between atoms: _182  and  _183
REMARK   71  A    between atoms: _185  and  _187
REMARK   72  A    between atoms: _187  and  _188
REMARK   73  A    between atoms: _187  and  _190
REMARK   74  A    between atoms: _190  and  _191
REMARK   75  A    between atoms: _194  and  _196
REMARK   76  A    between atoms: _196  and  _197
REMARK   77  A    between atoms: _196  and  _199
REMARK   78  A    between atoms: _199  and  _200
REMARK   79  A    between atoms: _200  and  _201
REMARK   80  A    between atoms: _203  and  _205
REMARK   81  A    between atoms: _205  and  _206
REMARK   82  A    between atoms: _205  and  _208
REMARK   83  A    between atoms: _208  and  _209
REMARK   84  A    between atoms: _209  and  _210
REMARK   85  A    between atoms: _210  and  _211
REMARK   86  A    between atoms: _220  and  _222
REMARK   87  A    between atoms: _222  and  _223
REMARK   88  A    between atoms: _222  and  _225
REMARK   89  A    between atoms: _228  and  _230
REMARK   90  A    between atoms: _230  and  _231
REMARK   91  A    between atoms: _230  and  _233
REMARK   92  A    between atoms: _233  and  _234
REMARK   93  A    between atoms: _234  and  _235
REMARK   94  A    between atoms: _235  and  _236
REMARK   95  A    between atoms: _245  and  _247
REMARK   96  A    between atoms: _247  and  _248
REMARK   97  A    between atoms: _250  and  _252
REMARK   98  A    between atoms: _252  and  _253
REMARK   99  A    between atoms: _252  and  _255
REMARK  100  A    between atoms: _255  and  _256
REMARK  101  A    between atoms: _262  and  _264
REMARK  102  A    between atoms: _264  and  _265
REMARK  103  A    between atoms: _264  and  _267
REMARK  104  A    between atoms: _267  and  _268
REMARK  105  A    between atoms: _271  and  _273
REMARK  106  A    between atoms: _273  and  _274
REMARK  107  A    between atoms: _273  and  _276
REMARK  108  A    between atoms: _276  and  _277
REMARK  109  A    between atoms: _277  and  _278
REMARK  110  A    between atoms: _283  and  _285
REMARK  111  A    between atoms: _285  and  _286
REMARK  112  A    between atoms: _285  and  _288
REMARK  113  A    between atoms: _288  and  _289
REMARK  114  A    between atoms: _292  and  _294
REMARK  115  A    between atoms: _294  and  _295
REMARK  116  A    between atoms: _294  and  _297
REMARK  117  A    between atoms: _297  and  _298
REMARK  118  A    between atoms: _301  and  _303
REMARK  119  A    between atoms: _303  and  _304
REMARK  120  A    between atoms: _307  and  _309
REMARK  121  A    between atoms: _309  and  _310
REMARK  122  A    between atoms: _309  and  _312
REMARK  123  A    between atoms: _312  and  _313
REMARK  124  A    between atoms: _317  and  ZN_632
REMARK  125  A    between atoms: _318  and  _320
REMARK  126  A    between atoms: _320  and  _321
REMARK  127  A    between atoms: _320  and  _323
REMARK  128  A    between atoms: _323  and  _324
REMARK  129  A    between atoms: _327  and  _329
REMARK  130  A    between atoms: _329  and  _330
REMARK  131  A    between atoms: _329  and  _332
REMARK  132  A    between atoms: _332  and  _333
REMARK  133  A    between atoms: _335  and  _337
REMARK  134  A    between atoms: _337  and  _338
REMARK  135  A    between atoms: _337  and  _340
REMARK  136  A    between atoms: _340  and  _341
REMARK  137  A    between atoms: _341  and  _342
REMARK  138  A    between atoms: _345  and  _347
REMARK  139  A    between atoms: _347  and  _348
REMARK  140  A    between atoms: _350  and  _352
REMARK  141  A    between atoms: _352  and  _353
REMARK  142  A    between atoms: _356  and  _358
REMARK  143  A    between atoms: _358  and  _359
REMARK  144  A    between atoms: _358  and  _361
REMARK  145  A    between atoms: _361  and  _362
REMARK  146  A    between atoms: _368  and  _370
REMARK  147  A    between atoms: _370  and  _371
REMARK  148  A    between atoms: _370  and  _373
REMARK  149  A    between atoms: _373  and  _374
REMARK  150  A    between atoms: _379  and  _380
REMARK  151  A    between atoms: _382  and  _384
REMARK  152  A    between atoms: _384  and  _385
REMARK  153  A    between atoms: _384  and  _387
REMARK  154  A    between atoms: _387  and  _388
REMARK  155  A    between atoms: _388  and  _389
REMARK  156  A    between atoms: _389  and  _390
REMARK  157  A    between atoms: _390  and  _391
REMARK  158  A    between atoms: _395  and  _397
REMARK  159  A    between atoms: _397  and  _398
REMARK  160  A    between atoms: _397  and  _400
REMARK  161  A    between atoms: _400  and  _401
REMARK  162  A    between atoms: _404  and  _406
REMARK  163  A    between atoms: _406  and  _407
REMARK  164  A    between atoms: _406  and  _409
REMARK  165  A    between atoms: _409  and  _410
REMARK  166  A    between atoms: _410  and  _411
REMARK  167  A    between atoms: _414  and  _416
REMARK  168  A    between atoms: _416  and  _417
REMARK  169  A    between atoms: _416  and  _419
REMARK  170  A    between atoms: _419  and  _420
REMARK  171  A    between atoms: _430  and  _432
REMARK  172  A    between atoms: _432  and  _433
REMARK  173  A    between atoms: _432  and  _435
REMARK  174  A    between atoms: _435  and  _436
REMARK  175  A    between atoms: _436  and  _437
REMARK  176  A    between atoms: _442  and  _444
REMARK  177  A    between atoms: _444  and  _445
REMARK  178  A    between atoms: _444  and  _447
REMARK  179  A    between atoms: _449  and  _451
REMARK  180  A    between atoms: _451  and  _452
REMARK  181  A    between atoms: _454  and  _456
REMARK  182  A    between atoms: _456  and  _457
REMARK  183  A    between atoms: _456  and  _459
REMARK  184  A    between atoms: _459  and  _460
REMARK  185  A    between atoms: _463  and  _465
REMARK  186  A    between atoms: _465  and  _466
REMARK  187  A    between atoms: _465  and  _468
REMARK  188  A    between atoms: _471  and  _473
REMARK  189  A    between atoms: _473  and  _474
REMARK  190  A    between atoms: _473  and  _476
REMARK  191  A    between atoms: _476  and  _477
REMARK  192  A    between atoms: _477  and  _478
REMARK  193  A    between atoms: _483  and  _485
REMARK  194  A    between atoms: _485  and  _486
REMARK  195  A    between atoms: _485  and  _488
REMARK  196  A    between atoms: _488  and  _489
REMARK  197  A    between atoms: _492  and  _494
REMARK  198  A    between atoms: _494  and  _495
REMARK  199  A    between atoms: _494  and  _497
REMARK  200  A    between atoms: _497  and  _498
REMARK  201  A    between atoms: _501  and  _503
REMARK  202  A    between atoms: _503  and  _504
REMARK  203  A    between atoms: _503  and  _506
REMARK  204  A    between atoms: _506  and  _507
REMARK  205  A    between atoms: _507  and  _508
REMARK  206  A    between atoms: _510  and  _512
REMARK  207  A    between atoms: _512  and  _513
REMARK  208  A    between atoms: _512  and  _515
REMARK  209  A    between atoms: _515  and  _516
REMARK  210  A    between atoms: _519  and  _521
REMARK  211  A    between atoms: _521  and  _522
REMARK  212  A    between atoms: _521  and  _524
REMARK  213  A    between atoms: _524  and  _525
REMARK  214  A    between atoms: _526  and  ZN_632
REMARK  215  A    between atoms: _530  and  _532
REMARK  216  A    between atoms: _532  and  _533
REMARK  217  A    between atoms: _532  and  _535
REMARK  218  A    between atoms: _535  and  _536
REMARK  219  A    between atoms: _536  and  _537
REMARK  220  A    between atoms: _537  and  _538
REMARK  221  A    between atoms: _547  and  _549
REMARK  222  A    between atoms: _549  and  _550
REMARK  223  A    between atoms: _553  and  _555
REMARK  224  A    between atoms: _555  and  _556
REMARK  225  A    between atoms: _555  and  _558
REMARK  226  A    between atoms: _558  and  _559
REMARK  227  A    between atoms: _562  and  _564
REMARK  228  A    between atoms: _564  and  _565
REMARK  229  A    between atoms: _564  and  _567
REMARK  230  A    between atoms: _567  and  _568
REMARK  231  A    between atoms: _571  and  _573
REMARK  232  A    between atoms: _573  and  _574
REMARK  233  A    between atoms: _576  and  _578
REMARK  234  A    between atoms: _578  and  _579
REMARK  235  A    between atoms: _578  and  _581
REMARK  236  A    between atoms: _581  and  _582
REMARK  237  A    between atoms: _584  and  _586
REMARK  238  A    between atoms: _586  and  _587
REMARK  239  A    between atoms: _586  and  _589
REMARK  240  A    between atoms: _589  and  _590
REMARK  241  A    between atoms: _590  and  _591
REMARK  242  A    between atoms: _593  and  _595
REMARK  243  A    between atoms: _595  and  _596
REMARK  244  A    between atoms: _595  and  _598
REMARK  245  A    between atoms: _598  and  _599
REMARK  246  A    between atoms: _599  and  _600
REMARK  247  A    between atoms: _603  and  _605
REMARK  248  A    between atoms: _605  and  _606
REMARK  249  A    between atoms: _605  and  _608
REMARK  250  A    between atoms: _608  and  _609
REMARK  251  A    between atoms: _609  and  _610
REMARK  252  A    between atoms: _610  and  _611
REMARK  253  A    between atoms: _620  and  _622
REMARK  254  A    between atoms: _622  and  _623
REMARK  255  A    between atoms: _622  and  _625
REMARK  256  A    between atoms: _625  and  _626
REMARK                            x       y       z     vdW  Elec       q    Type
REMARK                         _______ _______ _______ _____ _____    ______ ____
ROOT
ATOM      1  O   HOH     1     -16.204 -43.901  14.510  0.00  0.00    +0.000 OA
ENDROOT
TORSDOF 0
REMARK  Name = ../refined-set-2016/4hwp/4hwp_pocket.pdb
REMARK  256 active torsions:
REMARK  status: ('A' for Active; 'I' for Inactive)
REMARK    1  A    between atoms: _1  and  _3
REMARK    2  A    between atoms: _3  and  _4
REMARK    3  A    between atoms: _6  and  _8
REMARK    4  A    between atoms: _8  and  _9
REMARK    5  A    between atoms: _8  and  _11
REMARK    6  A    between atoms: _11  and  _12
REMARK    7  A    between atoms: _17  and  _19
REMARK    8  A    between atoms: _19  and  _20
REMARK    9  A    between atoms: _19  and  _22
REMARK   10  A    between atoms: _22  and  _23
REMARK   11  A    between atoms: _28  and  _29
REMARK   12  A    between atoms: _31  and  _33
REMARK   13  A    between atoms: _33  and  _34
REMARK   14  A    between atoms: _38  and  _39
REMARK   15  A    between atoms: _44  and  _46
REMARK   16  A    between atoms: _46  and  _47
REMARK   17  A    between atoms: _46  and  _49
REMARK   18  A    between atoms: _49  and  _50
REMARK   19  A    between atoms: _50  and  _51
REMARK   20  A    between atoms: _53  and  _55
REMARK   21  A    between atoms: _55  and  _56
REMARK   22  A    between atoms: _55  and  _58
REMARK   23  A    between atoms: _58  and  _59
REMARK   24  A    between atoms: _64  and  _66
REMARK   25  A    between atoms: _66  and  _67
REMARK   26  A    between atoms: _66  and  _69
REMARK   27  A    between atoms: _69  and  _70
REMARK   28  A    between atoms: _70  and  ZN_632
REMARK   29  A    between atoms: _72  and  _73
REMARK   30  A    between atoms: _78  and  _80
REMARK   31  A    between atoms: _80  and  _81
REMARK   32  A    between atoms: _80  and  _83
REMARK   33  A    between atoms: _83  and  _84
REMARK   34  A    between atoms: _89  and  _91
REMARK   35  A    between atoms: _91  and  _92
REMARK   36  A    between atoms: _91  and  _94
REMARK   37  A    between atoms: _96  and  _98
REMARK   38  A    between atoms: _98  and  _99
REMARK   39  A    between atoms: _98  and  _101
REMARK   40  A    between atoms: _101  and  _102
REMARK   41  A    between atoms: _107  and  _109
REMARK   42  A    between atoms: _109  and  _110
REMARK   43  A    between atoms: _109  and  _112
REMARK   44  A    between atoms: _112  and  _113
REMARK   45  A    between atoms: _113  and  _114
REMARK   46  A    between atoms: _114  and  _115
REMARK   47  A    between atoms: _124  and  _126
REMARK   48  A    between atoms: _126  and  _127
REMARK   49  A    between atoms: _126  and  _129
REMARK   50  A    between atoms: _129  and  _130
REMARK   51  A    between atoms: _135  and  _137
REMARK   52  A    between atoms: _137  and  _138
REMARK   53  A    between atoms: _137  and  _140
REMARK   54  A    between atoms: _140  and  _141
REMARK   55  A    between atoms: _141  and  _142
REMARK   56  A    between atoms: _146  and  _147
REMARK   57  A    between atoms: _152  and  _154
REMARK   58  A    between atoms: _154  and  _155
REMARK   59  A    between atoms: _154  and  _157
REMARK   60  A    between atoms: _157  and  _158
REMARK   61  A    between atoms: _160  and  _162
REMARK   62  A    between atoms: _162  and  _163
REMARK   63  A    between atoms: _162  and  _165
REMARK   64  A    between atoms: _165  and  _166
REMARK   65  A    between atoms: _169  and  _171
REMARK   66  A    between atoms: _171  and  _172
REMARK   67  A    between atoms: _171  and  _174
REMARK   68  A    between atoms: _174  and  _175
REMARK   69  A    between atoms: _180  and  _182
REMARK   70  A    between atoms: _182  and  _183
REMARK   71  A    between atoms: _185  and  _187
REMARK   72  A    between atoms: _187  and  _188
REMARK   73  A    between atoms: _187  and  _190
REMARK   74  A    between atoms: _190  and  _191
REMARK   75  A    between atoms: _194  and  _196
REMARK   76  A    between atoms: _196  and  _197
REMARK   77  A    between atoms: _196  and  _199
REMARK   78  A    between atoms: _199  and  _200
REMARK   79  A    between atoms: _200  and  _201
REMARK   80  A    between atoms: _203  and  _205
REMARK   81  A    between atoms: _205  and  _206
REMARK   82  A    between atoms: _205  and  _208
REMARK   83  A    between atoms: _208  and  _209
REMARK   84  A    between atoms: _209  and  _210
REMARK   85  A    between atoms: _210  and  _211
REMARK   86  A    between atoms: _220  and  _222
REMARK   87  A    between atoms: _222  and  _223
REMARK   88  A    between atoms: _222  and  _225
REMARK   89  A    between atoms: _228  and  _230
REMARK   90  A    between atoms: _230  and  _231
REMARK   91  A    between atoms: _230  and  _233
REMARK   92  A    between atoms: _233  and  _234
REMARK   93  A    between atoms: _234  and  _235
REMARK   94  A    between atoms: _235  and  _236
REMARK   95  A    between atoms: _245  and  _247
REMARK   96  A    between atoms: _247  and  _248
REMARK   97  A    between atoms: _250  and  _252
REMARK   98  A    between atoms: _252  and  _253
REMARK   99  A    between atoms: _252  and  _255
REMARK  100  A    between atoms: _255  and  _256
REMARK  101  A    between atoms: _262  and  _264
REMARK  102  A    between atoms: _264  and  _265
REMARK  103  A    between atoms: _264  and  _267
REMARK  104  A    between atoms: _267  and  _268
REMARK  105  A    between atoms: _271  and  _273
REMARK  106  A    between atoms: _273  and  _274
REMARK  107  A    between atoms: _273  and  _276
REMARK  108  A    between atoms: _276  and  _277
REMARK  109  A    between atoms: _277  and  _278
REMARK  110  A    between atoms: _283  and  _285
REMARK  111  A    between atoms: _285  and  _286
REMARK  112  A    between atoms: _285  and  _288
REMARK  113  A    between atoms: _288  and  _289
REMARK  114  A    between atoms: _292  and  _294
REMARK  115  A    between atoms: _294  and  _295
REMARK  116  A    between atoms: _294  and  _297
REMARK  117  A    between atoms: _297  and  _298
REMARK  118  A    between atoms: _301  and  _303
REMARK  119  A    between atoms: _303  and  _304
REMARK  120  A    between atoms: _307  and  _309
REMARK  121  A    between atoms: _309  and  _310
REMARK  122  A    between atoms: _309  and  _312
REMARK  123  A    between atoms: _312  and  _313
REMARK  124  A    between atoms: _317  and  ZN_632
REMARK  125  A    between atoms: _318  and  _320
REMARK  126  A    between atoms: _320  and  _321
REMARK  127  A    between atoms: _320  and  _323
REMARK  128  A    between atoms: _323  and  _324
REMARK  129  A    between atoms: _327  and  _329
REMARK  130  A    between atoms: _329  and  _330
REMARK  131  A    between atoms: _329  and  _332
REMARK  132  A    between atoms: _332  and  _333
REMARK  133  A    between atoms: _335  and  _337
REMARK  134  A    between atoms: _337  and  _338
REMARK  135  A    between atoms: _337  and  _340
REMARK  136  A    between atoms: _340  and  _341
REMARK  137  A    between atoms: _341  and  _342
REMARK  138  A    between atoms: _345  and  _347
REMARK  139  A    between atoms: _347  and  _348
REMARK  140  A    between atoms: _350  and  _352
REMARK  141  A    between atoms: _352  and  _353
REMARK  142  A    between atoms: _356  and  _358
REMARK  143  A    between atoms: _358  and  _359
REMARK  144  A    between atoms: _358  and  _361
REMARK  145  A    between atoms: _361  and  _362
REMARK  146  A    between atoms: _368  and  _370
REMARK  147  A    between atoms: _370  and  _371
REMARK  148  A    between atoms: _370  and  _373
REMARK  149  A    between atoms: _373  and  _374
REMARK  150  A    between atoms: _379  and  _380
REMARK  151  A    between atoms: _382  and  _384
REMARK  152  A    between atoms: _384  and  _385
REMARK  153  A    between atoms: _384  and  _387
REMARK  154  A    between atoms: _387  and  _388
REMARK  155  A    between atoms: _388  and  _389
REMARK  156  A    between atoms: _389  and  _390
REMARK  157  A    between atoms: _390  and  _391
REMARK  158  A    between atoms: _395  and  _397
REMARK  159  A    between atoms: _397  and  _398
REMARK  160  A    between atoms: _397  and  _400
REMARK  161  A    between atoms: _400  and  _401
REMARK  162  A    between atoms: _404  and  _406
REMARK  163  A    between atoms: _406  and  _407
REMARK  164  A    between atoms: _406  and  _409
REMARK  165  A    between atoms: _409  and  _410
REMARK  166  A    between atoms: _410  and  _411
REMARK  167  A    between atoms: _414  and  _416
REMARK  168  A    between atoms: _416  and  _417
REMARK  169  A    between atoms: _416  and  _419
REMARK  170  A    between atoms: _419  and  _420
REMARK  171  A    between atoms: _430  and  _432
REMARK  172  A    between atoms: _432  and  _433
REMARK  173  A    between atoms: _432  and  _435
REMARK  174  A    between atoms: _435  and  _436
REMARK  175  A    between atoms: _436  and  _437
REMARK  176  A    between atoms: _442  and  _444
REMARK  177  A    between atoms: _444  and  _445
REMARK  178  A    between atoms: _444  and  _447
REMARK  179  A    between atoms: _449  and  _451
REMARK  180  A    between atoms: _451  and  _452
REMARK  181  A    between atoms: _454  and  _456
REMARK  182  A    between atoms: _456  and  _457
REMARK  183  A    between atoms: _456  and  _459
REMARK  184  A    between atoms: _459  and  _460
REMARK  185  A    between atoms: _463  and  _465
REMARK  186  A    between atoms: _465  and  _466
REMARK  187  A    between atoms: _465  and  _468
REMARK  188  A    between atoms: _471  and  _473
REMARK  189  A    between atoms: _473  and  _474
REMARK  190  A    between atoms: _473  and  _476
REMARK  191  A    between atoms: _476  and  _477
REMARK  192  A    between atoms: _477  and  _478
REMARK  193  A    between atoms: _483  and  _485
REMARK  194  A    between atoms: _485  and  _486
REMARK  195  A    between atoms: _485  and  _488
REMARK  196  A    between atoms: _488  and  _489
REMARK  197  A    between atoms: _492  and  _494
REMARK  198  A    between atoms: _494  and  _495
REMARK  199  A    between atoms: _494  and  _497
REMARK  200  A    between atoms: _497  and  _498
REMARK  201  A    between atoms: _501  and  _503
REMARK  202  A    between atoms: _503  and  _504
REMARK  203  A    between atoms: _503  and  _506
REMARK  204  A    between atoms: _506  and  _507
REMARK  205  A    between atoms: _507  and  _508
REMARK  206  A    between atoms: _510  and  _512
REMARK  207  A    between atoms: _512  and  _513
REMARK  208  A    between atoms: _512  and  _515
REMARK  209  A    between atoms: _515  and  _516
REMARK  210  A    between atoms: _519  and  _521
REMARK  211  A    between atoms: _521  and  _522
REMARK  212  A    between atoms: _521  and  _524
REMARK  213  A    between atoms: _524  and  _525
REMARK  214  A    between atoms: _526  and  ZN_632
REMARK  215  A    between atoms: _530  and  _532
REMARK  216  A    between atoms: _532  and  _533
REMARK  217  A    between atoms: _532  and  _535
REMARK  218  A    between atoms: _535  and  _536
REMARK  219  A    between atoms: _536  and  _537
REMARK  220  A    between atoms: _537  and  _538
REMARK  221  A    between atoms: _547  and  _549
REMARK  222  A    between atoms: _549  and  _550
REMARK  223  A    between atoms: _553  and  _555
REMARK  224  A    between atoms: _555  and  _556
REMARK  225  A    between atoms: _555  and  _558
REMARK  226  A    between atoms: _558  and  _559
REMARK  227  A    between atoms: _562  and  _564
REMARK  228  A    between atoms: _564  and  _565
REMARK  229  A    between atoms: _564  and  _567
REMARK  230  A    between atoms: _567  and  _568
REMARK  231  A    between atoms: _571  and  _573
REMARK  232  A    between atoms: _573  and  _574
REMARK  233  A    between atoms: _576  and  _578
REMARK  234  A    between atoms: _578  and  _579
REMARK  235  A    between atoms: _578  and  _581
REMARK  236  A    between atoms: _581  and  _582
REMARK  237  A    between atoms: _584  and  _586
REMARK  238  A    between atoms: _586  and  _587
REMARK  239  A    between atoms: _586  and  _589
REMARK  240  A    between atoms: _589  and  _590
REMARK  241  A    between atoms: _590  and  _591
REMARK  242  A    between atoms: _593  and  _595
REMARK  243  A    between atoms: _595  and  _596
REMARK  244  A    between atoms: _595  and  _598
REMARK  245  A    between atoms: _598  and  _599
REMARK  246  A    between atoms: _599  and  _600
REMARK  247  A    between atoms: _603  and  _605
REMARK  248  A    between atoms: _605  and  _606
REMARK  249  A    between atoms: _605  and  _608
REMARK  250  A    between atoms: _608  and  _609
REMARK  251  A    between atoms: _609  and  _610
REMARK  252  A    between atoms: _610  and  _611
REMARK  253  A    between atoms: _620  and  _622
REMARK  254  A    between atoms: _622  and  _623
REMARK  255  A    between atoms: _622  and  _625
REMARK  256  A    between atoms: _625  and  _626
REMARK                            x       y       z     vdW  Elec       q    Type
REMARK                         _______ _______ _______ _____ _____    ______ ____
ROOT
ATOM      1  O   HOH     1     -11.271 -40.353  14.464  0.00  0.00    +0.000 OA
ENDROOT
TORSDOF 0
REMARK  Name = ../refined-set-2016/4hwp/4hwp_pocket.pdb
REMARK  256 active torsions:
REMARK  status: ('A' for Active; 'I' for Inactive)
REMARK    1  A    between atoms: _1  and  _3
REMARK    2  A    between atoms: _3  and  _4
REMARK    3  A    between atoms: _6  and  _8
REMARK    4  A    between atoms: _8  and  _9
REMARK    5  A    between atoms: _8  and  _11
REMARK    6  A    between atoms: _11  and  _12
REMARK    7  A    between atoms: _17  and  _19
REMARK    8  A    between atoms: _19  and  _20
REMARK    9  A    between atoms: _19  and  _22
REMARK   10  A    between atoms: _22  and  _23
REMARK   11  A    between atoms: _28  and  _29
REMARK   12  A    between atoms: _31  and  _33
REMARK   13  A    between atoms: _33  and  _34
REMARK   14  A    between atoms: _38  and  _39
REMARK   15  A    between atoms: _44  and  _46
REMARK   16  A    between atoms: _46  and  _47
REMARK   17  A    between atoms: _46  and  _49
REMARK   18  A    between atoms: _49  and  _50
REMARK   19  A    between atoms: _50  and  _51
REMARK   20  A    between atoms: _53  and  _55
REMARK   21  A    between atoms: _55  and  _56
REMARK   22  A    between atoms: _55  and  _58
REMARK   23  A    between atoms: _58  and  _59
REMARK   24  A    between atoms: _64  and  _66
REMARK   25  A    between atoms: _66  and  _67
REMARK   26  A    between atoms: _66  and  _69
REMARK   27  A    between atoms: _69  and  _70
REMARK   28  A    between atoms: _70  and  ZN_632
REMARK   29  A    between atoms: _72  and  _73
REMARK   30  A    between atoms: _78  and  _80
REMARK   31  A    between atoms: _80  and  _81
REMARK   32  A    between atoms: _80  and  _83
REMARK   33  A    between atoms: _83  and  _84
REMARK   34  A    between atoms: _89  and  _91
REMARK   35  A    between atoms: _91  and  _92
REMARK   36  A    between atoms: _91  and  _94
REMARK   37  A    between atoms: _96  and  _98
REMARK   38  A    between atoms: _98  and  _99
REMARK   39  A    between atoms: _98  and  _101
REMARK   40  A    between atoms: _101  and  _102
REMARK   41  A    between atoms: _107  and  _109
REMARK   42  A    between atoms: _109  and  _110
REMARK   43  A    between atoms: _109  and  _112
REMARK   44  A    between atoms: _112  and  _113
REMARK   45  A    between atoms: _113  and  _114
REMARK   46  A    between atoms: _114  and  _115
REMARK   47  A    between atoms: _124  and  _126
REMARK   48  A    between atoms: _126  and  _127
REMARK   49  A    between atoms: _126  and  _129
REMARK   50  A    between atoms: _129  and  _130
REMARK   51  A    between atoms: _135  and  _137
REMARK   52  A    between atoms: _137  and  _138
REMARK   53  A    between atoms: _137  and  _140
REMARK   54  A    between atoms: _140  and  _141
REMARK   55  A    between atoms: _141  and  _142
REMARK   56  A    between atoms: _146  and  _147
REMARK   57  A    between atoms: _152  and  _154
REMARK   58  A    between atoms: _154  and  _155
REMARK   59  A    between atoms: _154  and  _157
REMARK   60  A    between atoms: _157  and  _158
REMARK   61  A    between atoms: _160  and  _162
REMARK   62  A    between atoms: _162  and  _163
REMARK   63  A    between atoms: _162  and  _165
REMARK   64  A    between atoms: _165  and  _166
REMARK   65  A    between atoms: _169  and  _171
REMARK   66  A    between atoms: _171  and  _172
REMARK   67  A    between atoms: _171  and  _174
REMARK   68  A    between atoms: _174  and  _175
REMARK   69  A    between atoms: _180  and  _182
REMARK   70  A    between atoms: _182  and  _183
REMARK   71  A    between atoms: _185  and  _187
REMARK   72  A    between atoms: _187  and  _188
REMARK   73  A    between atoms: _187  and  _190
REMARK   74  A    between atoms: _190  and  _191
REMARK   75  A    between atoms: _194  and  _196
REMARK   76  A    between atoms: _196  and  _197
REMARK   77  A    between atoms: _196  and  _199
REMARK   78  A    between atoms: _199  and  _200
REMARK   79  A    between atoms: _200  and  _201
REMARK   80  A    between atoms: _203  and  _205
REMARK   81  A    between atoms: _205  and  _206
REMARK   82  A    between atoms: _205  and  _208
REMARK   83  A    between atoms: _208  and  _209
REMARK   84  A    between atoms: _209  and  _210
REMARK   85  A    between atoms: _210  and  _211
REMARK   86  A    between atoms: _220  and  _222
REMARK   87  A    between atoms: _222  and  _223
REMARK   88  A    between atoms: _222  and  _225
REMARK   89  A    between atoms: _228  and  _230
REMARK   90  A    between atoms: _230  and  _231
REMARK   91  A    between atoms: _230  and  _233
REMARK   92  A    between atoms: _233  and  _234
REMARK   93  A    between atoms: _234  and  _235
REMARK   94  A    between atoms: _235  and  _236
REMARK   95  A    between atoms: _245  and  _247
REMARK   96  A    between atoms: _247  and  _248
REMARK   97  A    between atoms: _250  and  _252
REMARK   98  A    between atoms: _252  and  _253
REMARK   99  A    between atoms: _252  and  _255
REMARK  100  A    between atoms: _255  and  _256
REMARK  101  A    between atoms: _262  and  _264
REMARK  102  A    between atoms: _264  and  _265
REMARK  103  A    between atoms: _264  and  _267
REMARK  104  A    between atoms: _267  and  _268
REMARK  105  A    between atoms: _271  and  _273
REMARK  106  A    between atoms: _273  and  _274
REMARK  107  A    between atoms: _273  and  _276
REMARK  108  A    between atoms: _276  and  _277
REMARK  109  A    between atoms: _277  and  _278
REMARK  110  A    between atoms: _283  and  _285
REMARK  111  A    between atoms: _285  and  _286
REMARK  112  A    between atoms: _285  and  _288
REMARK  113  A    between atoms: _288  and  _289
REMARK  114  A    between atoms: _292  and  _294
REMARK  115  A    between atoms: _294  and  _295
REMARK  116  A    between atoms: _294  and  _297
REMARK  117  A    between atoms: _297  and  _298
REMARK  118  A    between atoms: _301  and  _303
REMARK  119  A    between atoms: _303  and  _304
REMARK  120  A    between atoms: _307  and  _309
REMARK  121  A    between atoms: _309  and  _310
REMARK  122  A    between atoms: _309  and  _312
REMARK  123  A    between atoms: _312  and  _313
REMARK  124  A    between atoms: _317  and  ZN_632
REMARK  125  A    between atoms: _318  and  _320
REMARK  126  A    between atoms: _320  and  _321
REMARK  127  A    between atoms: _320  and  _323
REMARK  128  A    between atoms: _323  and  _324
REMARK  129  A    between atoms: _327  and  _329
REMARK  130  A    between atoms: _329  and  _330
REMARK  131  A    between atoms: _329  and  _332
REMARK  132  A    between atoms: _332  and  _333
REMARK  133  A    between atoms: _335  and  _337
REMARK  134  A    between atoms: _337  and  _338
REMARK  135  A    between atoms: _337  and  _340
REMARK  136  A    between atoms: _340  and  _341
REMARK  137  A    between atoms: _341  and  _342
REMARK  138  A    between atoms: _345  and  _347
REMARK  139  A    between atoms: _347  and  _348
REMARK  140  A    between atoms: _350  and  _352
REMARK  141  A    between atoms: _352  and  _353
REMARK  142  A    between atoms: _356  and  _358
REMARK  143  A    between atoms: _358  and  _359
REMARK  144  A    between atoms: _358  and  _361
REMARK  145  A    between atoms: _361  and  _362
REMARK  146  A    between atoms: _368  and  _370
REMARK  147  A    between atoms: _370  and  _371
REMARK  148  A    between atoms: _370  and  _373
REMARK  149  A    between atoms: _373  and  _374
REMARK  150  A    between atoms: _379  and  _380
REMARK  151  A    between atoms: _382  and  _384
REMARK  152  A    between atoms: _384  and  _385
REMARK  153  A    between atoms: _384  and  _387
REMARK  154  A    between atoms: _387  and  _388
REMARK  155  A    between atoms: _388  and  _389
REMARK  156  A    between atoms: _389  and  _390
REMARK  157  A    between atoms: _390  and  _391
REMARK  158  A    between atoms: _395  and  _397
REMARK  159  A    between atoms: _397  and  _398
REMARK  160  A    between atoms: _397  and  _400
REMARK  161  A    between atoms: _400  and  _401
REMARK  162  A    between atoms: _404  and  _406
REMARK  163  A    between atoms: _406  and  _407
REMARK  164  A    between atoms: _406  and  _409
REMARK  165  A    between atoms: _409  and  _410
REMARK  166  A    between atoms: _410  and  _411
REMARK  167  A    between atoms: _414  and  _416
REMARK  168  A    between atoms: _416  and  _417
REMARK  169  A    between atoms: _416  and  _419
REMARK  170  A    between atoms: _419  and  _420
REMARK  171  A    between atoms: _430  and  _432
REMARK  172  A    between atoms: _432  and  _433
REMARK  173  A    between atoms: _432  and  _435
REMARK  174  A    between atoms: _435  and  _436
REMARK  175  A    between atoms: _436  and  _437
REMARK  176  A    between atoms: _442  and  _444
REMARK  177  A    between atoms: _444  and  _445
REMARK  178  A    between atoms: _444  and  _447
REMARK  179  A    between atoms: _449  and  _451
REMARK  180  A    between atoms: _451  and  _452
REMARK  181  A    between atoms: _454  and  _456
REMARK  182  A    between atoms: _456  and  _457
REMARK  183  A    between atoms: _456  and  _459
REMARK  184  A    between atoms: _459  and  _460
REMARK  185  A    between atoms: _463  and  _465
REMARK  186  A    between atoms: _465  and  _466
REMARK  187  A    between atoms: _465  and  _468
REMARK  188  A    between atoms: _471  and  _473
REMARK  189  A    between atoms: _473  and  _474
REMARK  190  A    between atoms: _473  and  _476
REMARK  191  A    between atoms: _476  and  _477
REMARK  192  A    between atoms: _477  and  _478
REMARK  193  A    between atoms: _483  and  _485
REMARK  194  A    between atoms: _485  and  _486
REMARK  195  A    between atoms: _485  and  _488
REMARK  196  A    between atoms: _488  and  _489
REMARK  197  A    between atoms: _492  and  _494
REMARK  198  A    between atoms: _494  and  _495
REMARK  199  A    between atoms: _494  and  _497
REMARK  200  A    between atoms: _497  and  _498
REMARK  201  A    between atoms: _501  and  _503
REMARK  202  A    between atoms: _503  and  _504
REMARK  203  A    between atoms: _503  and  _506
REMARK  204  A    between atoms: _506  and  _507
REMARK  205  A    between atoms: _507  and  _508
REMARK  206  A    between atoms: _510  and  _512
REMARK  207  A    between atoms: _512  and  _513
REMARK  208  A    between atoms: _512  and  _515
REMARK  209  A    between atoms: _515  and  _516
REMARK  210  A    between atoms: _519  and  _521
REMARK  211  A    between atoms: _521  and  _522
REMARK  212  A    between atoms: _521  and  _524
REMARK  213  A    between atoms: _524  and  _525
REMARK  214  A    between atoms: _526  and  ZN_632
REMARK  215  A    between atoms: _530  and  _532
REMARK  216  A    between atoms: _532  and  _533
REMARK  217  A    between atoms: _532  and  _535
REMARK  218  A    between atoms: _535  and  _536
REMARK  219  A    between atoms: _536  and  _537
REMARK  220  A    between atoms: _537  and  _538
REMARK  221  A    between atoms: _547  and  _549
REMARK  222  A    between atoms: _549  and  _550
REMARK  223  A    between atoms: _553  and  _555
REMARK  224  A    between atoms: _555  and  _556
REMARK  225  A    between atoms: _555  and  _558
REMARK  226  A    between atoms: _558  and  _559
REMARK  227  A    between atoms: _562  and  _564
REMARK  228  A    between atoms: _564  and  _565
REMARK  229  A    between atoms: _564  and  _567
REMARK  230  A    between atoms: _567  and  _568
REMARK  231  A    between atoms: _571  and  _573
REMARK  232  A    between atoms: _573  and  _574
REMARK  233  A    between atoms: _576  and  _578
REMARK  234  A    between atoms: _578  and  _579
REMARK  235  A    between atoms: _578  and  _581
REMARK  236  A    between atoms: _581  and  _582
REMARK  237  A    between atoms: _584  and  _586
REMARK  238  A    between atoms: _586  and  _587
REMARK  239  A    between atoms: _586  and  _589
REMARK  240  A    between atoms: _589  and  _590
REMARK  241  A    between atoms: _590  and  _591
REMARK  242  A    between atoms: _593  and  _595
REMARK  243  A    between atoms: _595  and  _596
REMARK  244  A    between atoms: _595  and  _598
REMARK  245  A    between atoms: _598  and  _599
REMARK  246  A    between atoms: _599  and  _600
REMARK  247  A    between atoms: _603  and  _605
REMARK  248  A    between atoms: _605  and  _606
REMARK  249  A    between atoms: _605  and  _608
REMARK  250  A    between atoms: _608  and  _609
REMARK  251  A    between atoms: _609  and  _610
REMARK  252  A    between atoms: _610  and  _611
REMARK  253  A    between atoms: _620  and  _622
REMARK  254  A    between atoms: _622  and  _623
REMARK  255  A    between atoms: _622  and  _625
REMARK  256  A    between atoms: _625  and  _626
REMARK                            x       y       z     vdW  Elec       q    Type
REMARK                         _______ _______ _______ _____ _____    ______ ____
ROOT
ATOM      1  O   HOH     1     -23.880 -37.408  18.827  0.00  0.00    +0.000 OA
ENDROOT
TORSDOF 0
REMARK  Name = ../refined-set-2016/4hwp/4hwp_pocket.pdb
REMARK  256 active torsions:
REMARK  status: ('A' for Active; 'I' for Inactive)
REMARK    1  A    between atoms: _1  and  _3
REMARK    2  A    between atoms: _3  and  _4
REMARK    3  A    between atoms: _6  and  _8
REMARK    4  A    between atoms: _8  and  _9
REMARK    5  A    between atoms: _8  and  _11
REMARK    6  A    between atoms: _11  and  _12
REMARK    7  A    between atoms: _17  and  _19
REMARK    8  A    between atoms: _19  and  _20
REMARK    9  A    between atoms: _19  and  _22
REMARK   10  A    between atoms: _22  and  _23
REMARK   11  A    between atoms: _28  and  _29
REMARK   12  A    between atoms: _31  and  _33
REMARK   13  A    between atoms: _33  and  _34
REMARK   14  A    between atoms: _38  and  _39
REMARK   15  A    between atoms: _44  and  _46
REMARK   16  A    between atoms: _46  and  _47
REMARK   17  A    between atoms: _46  and  _49
REMARK   18  A    between atoms: _49  and  _50
REMARK   19  A    between atoms: _50  and  _51
REMARK   20  A    between atoms: _53  and  _55
REMARK   21  A    between atoms: _55  and  _56
REMARK   22  A    between atoms: _55  and  _58
REMARK   23  A    between atoms: _58  and  _59
REMARK   24  A    between atoms: _64  and  _66
REMARK   25  A    between atoms: _66  and  _67
REMARK   26  A    between atoms: _66  and  _69
REMARK   27  A    between atoms: _69  and  _70
REMARK   28  A    between atoms: _70  and  ZN_632
REMARK   29  A    between atoms: _72  and  _73
REMARK   30  A    between atoms: _78  and  _80
REMARK   31  A    between atoms: _80  and  _81
REMARK   32  A    between atoms: _80  and  _83
REMARK   33  A    between atoms: _83  and  _84
REMARK   34  A    between atoms: _89  and  _91
REMARK   35  A    between atoms: _91  and  _92
REMARK   36  A    between atoms: _91  and  _94
REMARK   37  A    between atoms: _96  and  _98
REMARK   38  A    between atoms: _98  and  _99
REMARK   39  A    between atoms: _98  and  _101
REMARK   40  A    between atoms: _101  and  _102
REMARK   41  A    between atoms: _107  and  _109
REMARK   42  A    between atoms: _109  and  _110
REMARK   43  A    between atoms: _109  and  _112
REMARK   44  A    between atoms: _112  and  _113
REMARK   45  A    between atoms: _113  and  _114
REMARK   46  A    between atoms: _114  and  _115
REMARK   47  A    between atoms: _124  and  _126
REMARK   48  A    between atoms: _126  and  _127
REMARK   49  A    between atoms: _126  and  _129
REMARK   50  A    between atoms: _129  and  _130
REMARK   51  A    between atoms: _135  and  _137
REMARK   52  A    between atoms: _137  and  _138
REMARK   53  A    between atoms: _137  and  _140
REMARK   54  A    between atoms: _140  and  _141
REMARK   55  A    between atoms: _141  and  _142
REMARK   56  A    between atoms: _146  and  _147
REMARK   57  A    between atoms: _152  and  _154
REMARK   58  A    between atoms: _154  and  _155
REMARK   59  A    between atoms: _154  and  _157
REMARK   60  A    between atoms: _157  and  _158
REMARK   61  A    between atoms: _160  and  _162
REMARK   62  A    between atoms: _162  and  _163
REMARK   63  A    between atoms: _162  and  _165
REMARK   64  A    between atoms: _165  and  _166
REMARK   65  A    between atoms: _169  and  _171
REMARK   66  A    between atoms: _171  and  _172
REMARK   67  A    between atoms: _171  and  _174
REMARK   68  A    between atoms: _174  and  _175
REMARK   69  A    between atoms: _180  and  _182
REMARK   70  A    between atoms: _182  and  _183
REMARK   71  A    between atoms: _185  and  _187
REMARK   72  A    between atoms: _187  and  _188
REMARK   73  A    between atoms: _187  and  _190
REMARK   74  A    between atoms: _190  and  _191
REMARK   75  A    between atoms: _194  and  _196
REMARK   76  A    between atoms: _196  and  _197
REMARK   77  A    between atoms: _196  and  _199
REMARK   78  A    between atoms: _199  and  _200
REMARK   79  A    between atoms: _200  and  _201
REMARK   80  A    between atoms: _203  and  _205
REMARK   81  A    between atoms: _205  and  _206
REMARK   82  A    between atoms: _205  and  _208
REMARK   83  A    between atoms: _208  and  _209
REMARK   84  A    between atoms: _209  and  _210
REMARK   85  A    between atoms: _210  and  _211
REMARK   86  A    between atoms: _220  and  _222
REMARK   87  A    between atoms: _222  and  _223
REMARK   88  A    between atoms: _222  and  _225
REMARK   89  A    between atoms: _228  and  _230
REMARK   90  A    between atoms: _230  and  _231
REMARK   91  A    between atoms: _230  and  _233
REMARK   92  A    between atoms: _233  and  _234
REMARK   93  A    between atoms: _234  and  _235
REMARK   94  A    between atoms: _235  and  _236
REMARK   95  A    between atoms: _245  and  _247
REMARK   96  A    between atoms: _247  and  _248
REMARK   97  A    between atoms: _250  and  _252
REMARK   98  A    between atoms: _252  and  _253
REMARK   99  A    between atoms: _252  and  _255
REMARK  100  A    between atoms: _255  and  _256
REMARK  101  A    between atoms: _262  and  _264
REMARK  102  A    between atoms: _264  and  _265
REMARK  103  A    between atoms: _264  and  _267
REMARK  104  A    between atoms: _267  and  _268
REMARK  105  A    between atoms: _271  and  _273
REMARK  106  A    between atoms: _273  and  _274
REMARK  107  A    between atoms: _273  and  _276
REMARK  108  A    between atoms: _276  and  _277
REMARK  109  A    between atoms: _277  and  _278
REMARK  110  A    between atoms: _283  and  _285
REMARK  111  A    between atoms: _285  and  _286
REMARK  112  A    between atoms: _285  and  _288
REMARK  113  A    between atoms: _288  and  _289
REMARK  114  A    between atoms: _292  and  _294
REMARK  115  A    between atoms: _294  and  _295
REMARK  116  A    between atoms: _294  and  _297
REMARK  117  A    between atoms: _297  and  _298
REMARK  118  A    between atoms: _301  and  _303
REMARK  119  A    between atoms: _303  and  _304
REMARK  120  A    between atoms: _307  and  _309
REMARK  121  A    between atoms: _309  and  _310
REMARK  122  A    between atoms: _309  and  _312
REMARK  123  A    between atoms: _312  and  _313
REMARK  124  A    between atoms: _317  and  ZN_632
REMARK  125  A    between atoms: _318  and  _320
REMARK  126  A    between atoms: _320  and  _321
REMARK  127  A    between atoms: _320  and  _323
REMARK  128  A    between atoms: _323  and  _324
REMARK  129  A    between atoms: _327  and  _329
REMARK  130  A    between atoms: _329  and  _330
REMARK  131  A    between atoms: _329  and  _332
REMARK  132  A    between atoms: _332  and  _333
REMARK  133  A    between atoms: _335  and  _337
REMARK  134  A    between atoms: _337  and  _338
REMARK  135  A    between atoms: _337  and  _340
REMARK  136  A    between atoms: _340  and  _341
REMARK  137  A    between atoms: _341  and  _342
REMARK  138  A    between atoms: _345  and  _347
REMARK  139  A    between atoms: _347  and  _348
REMARK  140  A    between atoms: _350  and  _352
REMARK  141  A    between atoms: _352  and  _353
REMARK  142  A    between atoms: _356  and  _358
REMARK  143  A    between atoms: _358  and  _359
REMARK  144  A    between atoms: _358  and  _361
REMARK  145  A    between atoms: _361  and  _362
REMARK  146  A    between atoms: _368  and  _370
REMARK  147  A    between atoms: _370  and  _371
REMARK  148  A    between atoms: _370  and  _373
REMARK  149  A    between atoms: _373  and  _374
REMARK  150  A    between atoms: _379  and  _380
REMARK  151  A    between atoms: _382  and  _384
REMARK  152  A    between atoms: _384  and  _385
REMARK  153  A    between atoms: _384  and  _387
REMARK  154  A    between atoms: _387  and  _388
REMARK  155  A    between atoms: _388  and  _389
REMARK  156  A    between atoms: _389  and  _390
REMARK  157  A    between atoms: _390  and  _391
REMARK  158  A    between atoms: _395  and  _397
REMARK  159  A    between atoms: _397  and  _398
REMARK  160  A    between atoms: _397  and  _400
REMARK  161  A    between atoms: _400  and  _401
REMARK  162  A    between atoms: _404  and  _406
REMARK  163  A    between atoms: _406  and  _407
REMARK  164  A    between atoms: _406  and  _409
REMARK  165  A    between atoms: _409  and  _410
REMARK  166  A    between atoms: _410  and  _411
REMARK  167  A    between atoms: _414  and  _416
REMARK  168  A    between atoms: _416  and  _417
REMARK  169  A    between atoms: _416  and  _419
REMARK  170  A    between atoms: _419  and  _420
REMARK  171  A    between atoms: _430  and  _432
REMARK  172  A    between atoms: _432  and  _433
REMARK  173  A    between atoms: _432  and  _435
REMARK  174  A    between atoms: _435  and  _436
REMARK  175  A    between atoms: _436  and  _437
REMARK  176  A    between atoms: _442  and  _444
REMARK  177  A    between atoms: _444  and  _445
REMARK  178  A    between atoms: _444  and  _447
REMARK  179  A    between atoms: _449  and  _451
REMARK  180  A    between atoms: _451  and  _452
REMARK  181  A    between atoms: _454  and  _456
REMARK  182  A    between atoms: _456  and  _457
REMARK  183  A    between atoms: _456  and  _459
REMARK  184  A    between atoms: _459  and  _460
REMARK  185  A    between atoms: _463  and  _465
REMARK  186  A    between atoms: _465  and  _466
REMARK  187  A    between atoms: _465  and  _468
REMARK  188  A    between atoms: _471  and  _473
REMARK  189  A    between atoms: _473  and  _474
REMARK  190  A    between atoms: _473  and  _476
REMARK  191  A    between atoms: _476  and  _477
REMARK  192  A    between atoms: _477  and  _478
REMARK  193  A    between atoms: _483  and  _485
REMARK  194  A    between atoms: _485  and  _486
REMARK  195  A    between atoms: _485  and  _488
REMARK  196  A    between atoms: _488  and  _489
REMARK  197  A    between atoms: _492  and  _494
REMARK  198  A    between atoms: _494  and  _495
REMARK  199  A    between atoms: _494  and  _497
REMARK  200  A    between atoms: _497  and  _498
REMARK  201  A    between atoms: _501  and  _503
REMARK  202  A    between atoms: _503  and  _504
REMARK  203  A    between atoms: _503  and  _506
REMARK  204  A    between atoms: _506  and  _507
REMARK  205  A    between atoms: _507  and  _508
REMARK  206  A    between atoms: _510  and  _512
REMARK  207  A    between atoms: _512  and  _513
REMARK  208  A    between atoms: _512  and  _515
REMARK  209  A    between atoms: _515  and  _516
REMARK  210  A    between atoms: _519  and  _521
REMARK  211  A    between atoms: _521  and  _522
REMARK  212  A    between atoms: _521  and  _524
REMARK  213  A    between atoms: _524  and  _525
REMARK  214  A    between atoms: _526  and  ZN_632
REMARK  215  A    between atoms: _530  and  _532
REMARK  216  A    between atoms: _532  and  _533
REMARK  217  A    between atoms: _532  and  _535
REMARK  218  A    between atoms: _535  and  _536
REMARK  219  A    between atoms: _536  and  _537
REMARK  220  A    between atoms: _537  and  _538
REMARK  221  A    between atoms: _547  and  _549
REMARK  222  A    between atoms: _549  and  _550
REMARK  223  A    between atoms: _553  and  _555
REMARK  224  A    between atoms: _555  and  _556
REMARK  225  A    between atoms: _555  and  _558
REMARK  226  A    between atoms: _558  and  _559
REMARK  227  A    between atoms: _562  and  _564
REMARK  228  A    between atoms: _564  and  _565
REMARK  229  A    between atoms: _564  and  _567
REMARK  230  A    between atoms: _567  and  _568
REMARK  231  A    between atoms: _571  and  _573
REMARK  232  A    between atoms: _573  and  _574
REMARK  233  A    between atoms: _576  and  _578
REMARK  234  A    between atoms: _578  and  _579
REMARK  235  A    between atoms: _578  and  _581
REMARK  236  A    between atoms: _581  and  _582
REMARK  237  A    between atoms: _584  and  _586
REMARK  238  A    between atoms: _586  and  _587
REMARK  239  A    between atoms: _586  and  _589
REMARK  240  A    between atoms: _589  and  _590
REMARK  241  A    between atoms: _590  and  _591
REMARK  242  A    between atoms: _593  and  _595
REMARK  243  A    between atoms: _595  and  _596
REMARK  244  A    between atoms: _595  and  _598
REMARK  245  A    between atoms: _598  and  _599
REMARK  246  A    between atoms: _599  and  _600
REMARK  247  A    between atoms: _603  and  _605
REMARK  248  A    between atoms: _605  and  _606
REMARK  249  A    between atoms: _605  and  _608
REMARK  250  A    between atoms: _608  and  _609
REMARK  251  A    between atoms: _609  and  _610
REMARK  252  A    between atoms: _610  and  _611
REMARK  253  A    between atoms: _620  and  _622
REMARK  254  A    between atoms: _622  and  _623
REMARK  255  A    between atoms: _622  and  _625
REMARK  256  A    between atoms: _625  and  _626
REMARK                            x       y       z     vdW  Elec       q    Type
REMARK                         _______ _______ _______ _____ _____    ______ ____
ROOT
ATOM      1  O   HOH     1     -17.416 -42.252  17.172  0.00  0.00    +0.000 OA
ENDROOT
TORSDOF 0
REMARK  Name = ../refined-set-2016/4hwp/4hwp_pocket.pdb
REMARK  256 active torsions:
REMARK  status: ('A' for Active; 'I' for Inactive)
REMARK    1  A    between atoms: _1  and  _3
REMARK    2  A    between atoms: _3  and  _4
REMARK    3  A    between atoms: _6  and  _8
REMARK    4  A    between atoms: _8  and  _9
REMARK    5  A    between atoms: _8  and  _11
REMARK    6  A    between atoms: _11  and  _12
REMARK    7  A    between atoms: _17  and  _19
REMARK    8  A    between atoms: _19  and  _20
REMARK    9  A    between atoms: _19  and  _22
REMARK   10  A    between atoms: _22  and  _23
REMARK   11  A    between atoms: _28  and  _29
REMARK   12  A    between atoms: _31  and  _33
REMARK   13  A    between atoms: _33  and  _34
REMARK   14  A    between atoms: _38  and  _39
REMARK   15  A    between atoms: _44  and  _46
REMARK   16  A    between atoms: _46  and  _47
REMARK   17  A    between atoms: _46  and  _49
REMARK   18  A    between atoms: _49  and  _50
REMARK   19  A    between atoms: _50  and  _51
REMARK   20  A    between atoms: _53  and  _55
REMARK   21  A    between atoms: _55  and  _56
REMARK   22  A    between atoms: _55  and  _58
REMARK   23  A    between atoms: _58  and  _59
REMARK   24  A    between atoms: _64  and  _66
REMARK   25  A    between atoms: _66  and  _67
REMARK   26  A    between atoms: _66  and  _69
REMARK   27  A    between atoms: _69  and  _70
REMARK   28  A    between atoms: _70  and  ZN_632
REMARK   29  A    between atoms: _72  and  _73
REMARK   30  A    between atoms: _78  and  _80
REMARK   31  A    between atoms: _80  and  _81
REMARK   32  A    between atoms: _80  and  _83
REMARK   33  A    between atoms: _83  and  _84
REMARK   34  A    between atoms: _89  and  _91
REMARK   35  A    between atoms: _91  and  _92
REMARK   36  A    between atoms: _91  and  _94
REMARK   37  A    between atoms: _96  and  _98
REMARK   38  A    between atoms: _98  and  _99
REMARK   39  A    between atoms: _98  and  _101
REMARK   40  A    between atoms: _101  and  _102
REMARK   41  A    between atoms: _107  and  _109
REMARK   42  A    between atoms: _109  and  _110
REMARK   43  A    between atoms: _109  and  _112
REMARK   44  A    between atoms: _112  and  _113
REMARK   45  A    between atoms: _113  and  _114
REMARK   46  A    between atoms: _114  and  _115
REMARK   47  A    between atoms: _124  and  _126
REMARK   48  A    between atoms: _126  and  _127
REMARK   49  A    between atoms: _126  and  _129
REMARK   50  A    between atoms: _129  and  _130
REMARK   51  A    between atoms: _135  and  _137
REMARK   52  A    between atoms: _137  and  _138
REMARK   53  A    between atoms: _137  and  _140
REMARK   54  A    between atoms: _140  and  _141
REMARK   55  A    between atoms: _141  and  _142
REMARK   56  A    between atoms: _146  and  _147
REMARK   57  A    between atoms: _152  and  _154
REMARK   58  A    between atoms: _154  and  _155
REMARK   59  A    between atoms: _154  and  _157
REMARK   60  A    between atoms: _157  and  _158
REMARK   61  A    between atoms: _160  and  _162
REMARK   62  A    between atoms: _162  and  _163
REMARK   63  A    between atoms: _162  and  _165
REMARK   64  A    between atoms: _165  and  _166
REMARK   65  A    between atoms: _169  and  _171
REMARK   66  A    between atoms: _171  and  _172
REMARK   67  A    between atoms: _171  and  _174
REMARK   68  A    between atoms: _174  and  _175
REMARK   69  A    between atoms: _180  and  _182
REMARK   70  A    between atoms: _182  and  _183
REMARK   71  A    between atoms: _185  and  _187
REMARK   72  A    between atoms: _187  and  _188
REMARK   73  A    between atoms: _187  and  _190
REMARK   74  A    between atoms: _190  and  _191
REMARK   75  A    between atoms: _194  and  _196
REMARK   76  A    between atoms: _196  and  _197
REMARK   77  A    between atoms: _196  and  _199
REMARK   78  A    between atoms: _199  and  _200
REMARK   79  A    between atoms: _200  and  _201
REMARK   80  A    between atoms: _203  and  _205
REMARK   81  A    between atoms: _205  and  _206
REMARK   82  A    between atoms: _205  and  _208
REMARK   83  A    between atoms: _208  and  _209
REMARK   84  A    between atoms: _209  and  _210
REMARK   85  A    between atoms: _210  and  _211
REMARK   86  A    between atoms: _220  and  _222
REMARK   87  A    between atoms: _222  and  _223
REMARK   88  A    between atoms: _222  and  _225
REMARK   89  A    between atoms: _228  and  _230
REMARK   90  A    between atoms: _230  and  _231
REMARK   91  A    between atoms: _230  and  _233
REMARK   92  A    between atoms: _233  and  _234
REMARK   93  A    between atoms: _234  and  _235
REMARK   94  A    between atoms: _235  and  _236
REMARK   95  A    between atoms: _245  and  _247
REMARK   96  A    between atoms: _247  and  _248
REMARK   97  A    between atoms: _250  and  _252
REMARK   98  A    between atoms: _252  and  _253
REMARK   99  A    between atoms: _252  and  _255
REMARK  100  A    between atoms: _255  and  _256
REMARK  101  A    between atoms: _262  and  _264
REMARK  102  A    between atoms: _264  and  _265
REMARK  103  A    between atoms: _264  and  _267
REMARK  104  A    between atoms: _267  and  _268
REMARK  105  A    between atoms: _271  and  _273
REMARK  106  A    between atoms: _273  and  _274
REMARK  107  A    between atoms: _273  and  _276
REMARK  108  A    between atoms: _276  and  _277
REMARK  109  A    between atoms: _277  and  _278
REMARK  110  A    between atoms: _283  and  _285
REMARK  111  A    between atoms: _285  and  _286
REMARK  112  A    between atoms: _285  and  _288
REMARK  113  A    between atoms: _288  and  _289
REMARK  114  A    between atoms: _292  and  _294
REMARK  115  A    between atoms: _294  and  _295
REMARK  116  A    between atoms: _294  and  _297
REMARK  117  A    between atoms: _297  and  _298
REMARK  118  A    between atoms: _301  and  _303
REMARK  119  A    between atoms: _303  and  _304
REMARK  120  A    between atoms: _307  and  _309
REMARK  121  A    between atoms: _309  and  _310
REMARK  122  A    between atoms: _309  and  _312
REMARK  123  A    between atoms: _312  and  _313
REMARK  124  A    between atoms: _317  and  ZN_632
REMARK  125  A    between atoms: _318  and  _320
REMARK  126  A    between atoms: _320  and  _321
REMARK  127  A    between atoms: _320  and  _323
REMARK  128  A    between atoms: _323  and  _324
REMARK  129  A    between atoms: _327  and  _329
REMARK  130  A    between atoms: _329  and  _330
REMARK  131  A    between atoms: _329  and  _332
REMARK  132  A    between atoms: _332  and  _333
REMARK  133  A    between atoms: _335  and  _337
REMARK  134  A    between atoms: _337  and  _338
REMARK  135  A    between atoms: _337  and  _340
REMARK  136  A    between atoms: _340  and  _341
REMARK  137  A    between atoms: _341  and  _342
REMARK  138  A    between atoms: _345  and  _347
REMARK  139  A    between atoms: _347  and  _348
REMARK  140  A    between atoms: _350  and  _352
REMARK  141  A    between atoms: _352  and  _353
REMARK  142  A    between atoms: _356  and  _358
REMARK  143  A    between atoms: _358  and  _359
REMARK  144  A    between atoms: _358  and  _361
REMARK  145  A    between atoms: _361  and  _362
REMARK  146  A    between atoms: _368  and  _370
REMARK  147  A    between atoms: _370  and  _371
REMARK  148  A    between atoms: _370  and  _373
REMARK  149  A    between atoms: _373  and  _374
REMARK  150  A    between atoms: _379  and  _380
REMARK  151  A    between atoms: _382  and  _384
REMARK  152  A    between atoms: _384  and  _385
REMARK  153  A    between atoms: _384  and  _387
REMARK  154  A    between atoms: _387  and  _388
REMARK  155  A    between atoms: _388  and  _389
REMARK  156  A    between atoms: _389  and  _390
REMARK  157  A    between atoms: _390  and  _391
REMARK  158  A    between atoms: _395  and  _397
REMARK  159  A    between atoms: _397  and  _398
REMARK  160  A    between atoms: _397  and  _400
REMARK  161  A    between atoms: _400  and  _401
REMARK  162  A    between atoms: _404  and  _406
REMARK  163  A    between atoms: _406  and  _407
REMARK  164  A    between atoms: _406  and  _409
REMARK  165  A    between atoms: _409  and  _410
REMARK  166  A    between atoms: _410  and  _411
REMARK  167  A    between atoms: _414  and  _416
REMARK  168  A    between atoms: _416  and  _417
REMARK  169  A    between atoms: _416  and  _419
REMARK  170  A    between atoms: _419  and  _420
REMARK  171  A    between atoms: _430  and  _432
REMARK  172  A    between atoms: _432  and  _433
REMARK  173  A    between atoms: _432  and  _435
REMARK  174  A    between atoms: _435  and  _436
REMARK  175  A    between atoms: _436  and  _437
REMARK  176  A    between atoms: _442  and  _444
REMARK  177  A    between atoms: _444  and  _445
REMARK  178  A    between atoms: _444  and  _447
REMARK  179  A    between atoms: _449  and  _451
REMARK  180  A    between atoms: _451  and  _452
REMARK  181  A    between atoms: _454  and  _456
REMARK  182  A    between atoms: _456  and  _457
REMARK  183  A    between atoms: _456  and  _459
REMARK  184  A    between atoms: _459  and  _460
REMARK  185  A    between atoms: _463  and  _465
REMARK  186  A    between atoms: _465  and  _466
REMARK  187  A    between atoms: _465  and  _468
REMARK  188  A    between atoms: _471  and  _473
REMARK  189  A    between atoms: _473  and  _474
REMARK  190  A    between atoms: _473  and  _476
REMARK  191  A    between atoms: _476  and  _477
REMARK  192  A    between atoms: _477  and  _478
REMARK  193  A    between atoms: _483  and  _485
REMARK  194  A    between atoms: _485  and  _486
REMARK  195  A    between atoms: _485  and  _488
REMARK  196  A    between atoms: _488  and  _489
REMARK  197  A    between atoms: _492  and  _494
REMARK  198  A    between atoms: _494  and  _495
REMARK  199  A    between atoms: _494  and  _497
REMARK  200  A    between atoms: _497  and  _498
REMARK  201  A    between atoms: _501  and  _503
REMARK  202  A    between atoms: _503  and  _504
REMARK  203  A    between atoms: _503  and  _506
REMARK  204  A    between atoms: _506  and  _507
REMARK  205  A    between atoms: _507  and  _508
REMARK  206  A    between atoms: _510  and  _512
REMARK  207  A    between atoms: _512  and  _513
REMARK  208  A    between atoms: _512  and  _515
REMARK  209  A    between atoms: _515  and  _516
REMARK  210  A    between atoms: _519  and  _521
REMARK  211  A    between atoms: _521  and  _522
REMARK  212  A    between atoms: _521  and  _524
REMARK  213  A    between atoms: _524  and  _525
REMARK  214  A    between atoms: _526  and  ZN_632
REMARK  215  A    between atoms: _530  and  _532
REMARK  216  A    between atoms: _532  and  _533
REMARK  217  A    between atoms: _532  and  _535
REMARK  218  A    between atoms: _535  and  _536
REMARK  219  A    between atoms: _536  and  _537
REMARK  220  A    between atoms: _537  and  _538
REMARK  221  A    between atoms: _547  and  _549
REMARK  222  A    between atoms: _549  and  _550
REMARK  223  A    between atoms: _553  and  _555
REMARK  224  A    between atoms: _555  and  _556
REMARK  225  A    between atoms: _555  and  _558
REMARK  226  A    between atoms: _558  and  _559
REMARK  227  A    between atoms: _562  and  _564
REMARK  228  A    between atoms: _564  and  _565
REMARK  229  A    between atoms: _564  and  _567
REMARK  230  A    between atoms: _567  and  _568
REMARK  231  A    between atoms: _571  and  _573
REMARK  232  A    between atoms: _573  and  _574
REMARK  233  A    between atoms: _576  and  _578
REMARK  234  A    between atoms: _578  and  _579
REMARK  235  A    between atoms: _578  and  _581
REMARK  236  A    between atoms: _581  and  _582
REMARK  237  A    between atoms: _584  and  _586
REMARK  238  A    between atoms: _586  and  _587
REMARK  239  A    between atoms: _586  and  _589
REMARK  240  A    between atoms: _589  and  _590
REMARK  241  A    between atoms: _590  and  _591
REMARK  242  A    between atoms: _593  and  _595
REMARK  243  A    between atoms: _595  and  _596
REMARK  244  A    between atoms: _595  and  _598
REMARK  245  A    between atoms: _598  and  _599
REMARK  246  A    between atoms: _599  and  _600
REMARK  247  A    between atoms: _603  and  _605
REMARK  248  A    between atoms: _605  and  _606
REMARK  249  A    between atoms: _605  and  _608
REMARK  250  A    between atoms: _608  and  _609
REMARK  251  A    between atoms: _609  and  _610
REMARK  252  A    between atoms: _610  and  _611
REMARK  253  A    between atoms: _620  and  _622
REMARK  254  A    between atoms: _622  and  _623
REMARK  255  A    between atoms: _622  and  _625
REMARK  256  A    between atoms: _625  and  _626
REMARK                            x       y       z     vdW  Elec       q    Type
REMARK                         _______ _______ _______ _____ _____    ______ ____
ROOT
ATOM      1  O   HOH     1     -11.658 -44.409  16.007  0.00  0.00    +0.000 OA
ENDROOT
TORSDOF 0
REMARK  Name = ../refined-set-2016/4hwp/4hwp_pocket.pdb
REMARK  256 active torsions:
REMARK  status: ('A' for Active; 'I' for Inactive)
REMARK    1  A    between atoms: _1  and  _3
REMARK    2  A    between atoms: _3  and  _4
REMARK    3  A    between atoms: _6  and  _8
REMARK    4  A    between atoms: _8  and  _9
REMARK    5  A    between atoms: _8  and  _11
REMARK    6  A    between atoms: _11  and  _12
REMARK    7  A    between atoms: _17  and  _19
REMARK    8  A    between atoms: _19  and  _20
REMARK    9  A    between atoms: _19  and  _22
REMARK   10  A    between atoms: _22  and  _23
REMARK   11  A    between atoms: _28  and  _29
REMARK   12  A    between atoms: _31  and  _33
REMARK   13  A    between atoms: _33  and  _34
REMARK   14  A    between atoms: _38  and  _39
REMARK   15  A    between atoms: _44  and  _46
REMARK   16  A    between atoms: _46  and  _47
REMARK   17  A    between atoms: _46  and  _49
REMARK   18  A    between atoms: _49  and  _50
REMARK   19  A    between atoms: _50  and  _51
REMARK   20  A    between atoms: _53  and  _55
REMARK   21  A    between atoms: _55  and  _56
REMARK   22  A    between atoms: _55  and  _58
REMARK   23  A    between atoms: _58  and  _59
REMARK   24  A    between atoms: _64  and  _66
REMARK   25  A    between atoms: _66  and  _67
REMARK   26  A    between atoms: _66  and  _69
REMARK   27  A    between atoms: _69  and  _70
REMARK   28  A    between atoms: _70  and  ZN_632
REMARK   29  A    between atoms: _72  and  _73
REMARK   30  A    between atoms: _78  and  _80
REMARK   31  A    between atoms: _80  and  _81
REMARK   32  A    between atoms: _80  and  _83
REMARK   33  A    between atoms: _83  and  _84
REMARK   34  A    between atoms: _89  and  _91
REMARK   35  A    between atoms: _91  and  _92
REMARK   36  A    between atoms: _91  and  _94
REMARK   37  A    between atoms: _96  and  _98
REMARK   38  A    between atoms: _98  and  _99
REMARK   39  A    between atoms: _98  and  _101
REMARK   40  A    between atoms: _101  and  _102
REMARK   41  A    between atoms: _107  and  _109
REMARK   42  A    between atoms: _109  and  _110
REMARK   43  A    between atoms: _109  and  _112
REMARK   44  A    between atoms: _112  and  _113
REMARK   45  A    between atoms: _113  and  _114
REMARK   46  A    between atoms: _114  and  _115
REMARK   47  A    between atoms: _124  and  _126
REMARK   48  A    between atoms: _126  and  _127
REMARK   49  A    between atoms: _126  and  _129
REMARK   50  A    between atoms: _129  and  _130
REMARK   51  A    between atoms: _135  and  _137
REMARK   52  A    between atoms: _137  and  _138
REMARK   53  A    between atoms: _137  and  _140
REMARK   54  A    between atoms: _140  and  _141
REMARK   55  A    between atoms: _141  and  _142
REMARK   56  A    between atoms: _146  and  _147
REMARK   57  A    between atoms: _152  and  _154
REMARK   58  A    between atoms: _154  and  _155
REMARK   59  A    between atoms: _154  and  _157
REMARK   60  A    between atoms: _157  and  _158
REMARK   61  A    between atoms: _160  and  _162
REMARK   62  A    between atoms: _162  and  _163
REMARK   63  A    between atoms: _162  and  _165
REMARK   64  A    between atoms: _165  and  _166
REMARK   65  A    between atoms: _169  and  _171
REMARK   66  A    between atoms: _171  and  _172
REMARK   67  A    between atoms: _171  and  _174
REMARK   68  A    between atoms: _174  and  _175
REMARK   69  A    between atoms: _180  and  _182
REMARK   70  A    between atoms: _182  and  _183
REMARK   71  A    between atoms: _185  and  _187
REMARK   72  A    between atoms: _187  and  _188
REMARK   73  A    between atoms: _187  and  _190
REMARK   74  A    between atoms: _190  and  _191
REMARK   75  A    between atoms: _194  and  _196
REMARK   76  A    between atoms: _196  and  _197
REMARK   77  A    between atoms: _196  and  _199
REMARK   78  A    between atoms: _199  and  _200
REMARK   79  A    between atoms: _200  and  _201
REMARK   80  A    between atoms: _203  and  _205
REMARK   81  A    between atoms: _205  and  _206
REMARK   82  A    between atoms: _205  and  _208
REMARK   83  A    between atoms: _208  and  _209
REMARK   84  A    between atoms: _209  and  _210
REMARK   85  A    between atoms: _210  and  _211
REMARK   86  A    between atoms: _220  and  _222
REMARK   87  A    between atoms: _222  and  _223
REMARK   88  A    between atoms: _222  and  _225
REMARK   89  A    between atoms: _228  and  _230
REMARK   90  A    between atoms: _230  and  _231
REMARK   91  A    between atoms: _230  and  _233
REMARK   92  A    between atoms: _233  and  _234
REMARK   93  A    between atoms: _234  and  _235
REMARK   94  A    between atoms: _235  and  _236
REMARK   95  A    between atoms: _245  and  _247
REMARK   96  A    between atoms: _247  and  _248
REMARK   97  A    between atoms: _250  and  _252
REMARK   98  A    between atoms: _252  and  _253
REMARK   99  A    between atoms: _252  and  _255
REMARK  100  A    between atoms: _255  and  _256
REMARK  101  A    between atoms: _262  and  _264
REMARK  102  A    between atoms: _264  and  _265
REMARK  103  A    between atoms: _264  and  _267
REMARK  104  A    between atoms: _267  and  _268
REMARK  105  A    between atoms: _271  and  _273
REMARK  106  A    between atoms: _273  and  _274
REMARK  107  A    between atoms: _273  and  _276
REMARK  108  A    between atoms: _276  and  _277
REMARK  109  A    between atoms: _277  and  _278
REMARK  110  A    between atoms: _283  and  _285
REMARK  111  A    between atoms: _285  and  _286
REMARK  112  A    between atoms: _285  and  _288
REMARK  113  A    between atoms: _288  and  _289
REMARK  114  A    between atoms: _292  and  _294
REMARK  115  A    between atoms: _294  and  _295
REMARK  116  A    between atoms: _294  and  _297
REMARK  117  A    between atoms: _297  and  _298
REMARK  118  A    between atoms: _301  and  _303
REMARK  119  A    between atoms: _303  and  _304
REMARK  120  A    between atoms: _307  and  _309
REMARK  121  A    between atoms: _309  and  _310
REMARK  122  A    between atoms: _309  and  _312
REMARK  123  A    between atoms: _312  and  _313
REMARK  124  A    between atoms: _317  and  ZN_632
REMARK  125  A    between atoms: _318  and  _320
REMARK  126  A    between atoms: _320  and  _321
REMARK  127  A    between atoms: _320  and  _323
REMARK  128  A    between atoms: _323  and  _324
REMARK  129  A    between atoms: _327  and  _329
REMARK  130  A    between atoms: _329  and  _330
REMARK  131  A    between atoms: _329  and  _332
REMARK  132  A    between atoms: _332  and  _333
REMARK  133  A    between atoms: _335  and  _337
REMARK  134  A    between atoms: _337  and  _338
REMARK  135  A    between atoms: _337  and  _340
REMARK  136  A    between atoms: _340  and  _341
REMARK  137  A    between atoms: _341  and  _342
REMARK  138  A    between atoms: _345  and  _347
REMARK  139  A    between atoms: _347  and  _348
REMARK  140  A    between atoms: _350  and  _352
REMARK  141  A    between atoms: _352  and  _353
REMARK  142  A    between atoms: _356  and  _358
REMARK  143  A    between atoms: _358  and  _359
REMARK  144  A    between atoms: _358  and  _361
REMARK  145  A    between atoms: _361  and  _362
REMARK  146  A    between atoms: _368  and  _370
REMARK  147  A    between atoms: _370  and  _371
REMARK  148  A    between atoms: _370  and  _373
REMARK  149  A    between atoms: _373  and  _374
REMARK  150  A    between atoms: _379  and  _380
REMARK  151  A    between atoms: _382  and  _384
REMARK  152  A    between atoms: _384  and  _385
REMARK  153  A    between atoms: _384  and  _387
REMARK  154  A    between atoms: _387  and  _388
REMARK  155  A    between atoms: _388  and  _389
REMARK  156  A    between atoms: _389  and  _390
REMARK  157  A    between atoms: _390  and  _391
REMARK  158  A    between atoms: _395  and  _397
REMARK  159  A    between atoms: _397  and  _398
REMARK  160  A    between atoms: _397  and  _400
REMARK  161  A    between atoms: _400  and  _401
REMARK  162  A    between atoms: _404  and  _406
REMARK  163  A    between atoms: _406  and  _407
REMARK  164  A    between atoms: _406  and  _409
REMARK  165  A    between atoms: _409  and  _410
REMARK  166  A    between atoms: _410  and  _411
REMARK  167  A    between atoms: _414  and  _416
REMARK  168  A    between atoms: _416  and  _417
REMARK  169  A    between atoms: _416  and  _419
REMARK  170  A    between atoms: _419  and  _420
REMARK  171  A    between atoms: _430  and  _432
REMARK  172  A    between atoms: _432  and  _433
REMARK  173  A    between atoms: _432  and  _435
REMARK  174  A    between atoms: _435  and  _436
REMARK  175  A    between atoms: _436  and  _437
REMARK  176  A    between atoms: _442  and  _444
REMARK  177  A    between atoms: _444  and  _445
REMARK  178  A    between atoms: _444  and  _447
REMARK  179  A    between atoms: _449  and  _451
REMARK  180  A    between atoms: _451  and  _452
REMARK  181  A    between atoms: _454  and  _456
REMARK  182  A    between atoms: _456  and  _457
REMARK  183  A    between atoms: _456  and  _459
REMARK  184  A    between atoms: _459  and  _460
REMARK  185  A    between atoms: _463  and  _465
REMARK  186  A    between atoms: _465  and  _466
REMARK  187  A    between atoms: _465  and  _468
REMARK  188  A    between atoms: _471  and  _473
REMARK  189  A    between atoms: _473  and  _474
REMARK  190  A    between atoms: _473  and  _476
REMARK  191  A    between atoms: _476  and  _477
REMARK  192  A    between atoms: _477  and  _478
REMARK  193  A    between atoms: _483  and  _485
REMARK  194  A    between atoms: _485  and  _486
REMARK  195  A    between atoms: _485  and  _488
REMARK  196  A    between atoms: _488  and  _489
REMARK  197  A    between atoms: _492  and  _494
REMARK  198  A    between atoms: _494  and  _495
REMARK  199  A    between atoms: _494  and  _497
REMARK  200  A    between atoms: _497  and  _498
REMARK  201  A    between atoms: _501  and  _503
REMARK  202  A    between atoms: _503  and  _504
REMARK  203  A    between atoms: _503  and  _506
REMARK  204  A    between atoms: _506  and  _507
REMARK  205  A    between atoms: _507  and  _508
REMARK  206  A    between atoms: _510  and  _512
REMARK  207  A    between atoms: _512  and  _513
REMARK  208  A    between atoms: _512  and  _515
REMARK  209  A    between atoms: _515  and  _516
REMARK  210  A    between atoms: _519  and  _521
REMARK  211  A    between atoms: _521  and  _522
REMARK  212  A    between atoms: _521  and  _524
REMARK  213  A    between atoms: _524  and  _525
REMARK  214  A    between atoms: _526  and  ZN_632
REMARK  215  A    between atoms: _530  and  _532
REMARK  216  A    between atoms: _532  and  _533
REMARK  217  A    between atoms: _532  and  _535
REMARK  218  A    between atoms: _535  and  _536
REMARK  219  A    between atoms: _536  and  _537
REMARK  220  A    between atoms: _537  and  _538
REMARK  221  A    between atoms: _547  and  _549
REMARK  222  A    between atoms: _549  and  _550
REMARK  223  A    between atoms: _553  and  _555
REMARK  224  A    between atoms: _555  and  _556
REMARK  225  A    between atoms: _555  and  _558
REMARK  226  A    between atoms: _558  and  _559
REMARK  227  A    between atoms: _562  and  _564
REMARK  228  A    between atoms: _564  and  _565
REMARK  229  A    between atoms: _564  and  _567
REMARK  230  A    between atoms: _567  and  _568
REMARK  231  A    between atoms: _571  and  _573
REMARK  232  A    between atoms: _573  and  _574
REMARK  233  A    between atoms: _576  and  _578
REMARK  234  A    between atoms: _578  and  _579
REMARK  235  A    between atoms: _578  and  _581
REMARK  236  A    between atoms: _581  and  _582
REMARK  237  A    between atoms: _584  and  _586
REMARK  238  A    between atoms: _586  and  _587
REMARK  239  A    between atoms: _586  and  _589
REMARK  240  A    between atoms: _589  and  _590
REMARK  241  A    between atoms: _590  and  _591
REMARK  242  A    between atoms: _593  and  _595
REMARK  243  A    between atoms: _595  and  _596
REMARK  244  A    between atoms: _595  and  _598
REMARK  245  A    between atoms: _598  and  _599
REMARK  246  A    between atoms: _599  and  _600
REMARK  247  A    between atoms: _603  and  _605
REMARK  248  A    between atoms: _605  and  _606
REMARK  249  A    between atoms: _605  and  _608
REMARK  250  A    between atoms: _608  and  _609
REMARK  251  A    between atoms: _609  and  _610
REMARK  252  A    between atoms: _610  and  _611
REMARK  253  A    between atoms: _620  and  _622
REMARK  254  A    between atoms: _622  and  _623
REMARK  255  A    between atoms: _622  and  _625
REMARK  256  A    between atoms: _625  and  _626
REMARK                            x       y       z     vdW  Elec       q    Type
REMARK                         _______ _______ _______ _____ _____    ______ ____
ROOT
ATOM      1  O   HOH     1     -16.585 -41.451  15.317  0.00  0.00    +0.000 OA
ENDROOT
TORSDOF 0
REMARK  Name = ../refined-set-2016/4hwp/4hwp_pocket.pdb
REMARK  256 active torsions:
REMARK  status: ('A' for Active; 'I' for Inactive)
REMARK    1  A    between atoms: _1  and  _3
REMARK    2  A    between atoms: _3  and  _4
REMARK    3  A    between atoms: _6  and  _8
REMARK    4  A    between atoms: _8  and  _9
REMARK    5  A    between atoms: _8  and  _11
REMARK    6  A    between atoms: _11  and  _12
REMARK    7  A    between atoms: _17  and  _19
REMARK    8  A    between atoms: _19  and  _20
REMARK    9  A    between atoms: _19  and  _22
REMARK   10  A    between atoms: _22  and  _23
REMARK   11  A    between atoms: _28  and  _29
REMARK   12  A    between atoms: _31  and  _33
REMARK   13  A    between atoms: _33  and  _34
REMARK   14  A    between atoms: _38  and  _39
REMARK   15  A    between atoms: _44  and  _46
REMARK   16  A    between atoms: _46  and  _47
REMARK   17  A    between atoms: _46  and  _49
REMARK   18  A    between atoms: _49  and  _50
REMARK   19  A    between atoms: _50  and  _51
REMARK   20  A    between atoms: _53  and  _55
REMARK   21  A    between atoms: _55  and  _56
REMARK   22  A    between atoms: _55  and  _58
REMARK   23  A    between atoms: _58  and  _59
REMARK   24  A    between atoms: _64  and  _66
REMARK   25  A    between atoms: _66  and  _67
REMARK   26  A    between atoms: _66  and  _69
REMARK   27  A    between atoms: _69  and  _70
REMARK   28  A    between atoms: _70  and  ZN_632
REMARK   29  A    between atoms: _72  and  _73
REMARK   30  A    between atoms: _78  and  _80
REMARK   31  A    between atoms: _80  and  _81
REMARK   32  A    between atoms: _80  and  _83
REMARK   33  A    between atoms: _83  and  _84
REMARK   34  A    between atoms: _89  and  _91
REMARK   35  A    between atoms: _91  and  _92
REMARK   36  A    between atoms: _91  and  _94
REMARK   37  A    between atoms: _96  and  _98
REMARK   38  A    between atoms: _98  and  _99
REMARK   39  A    between atoms: _98  and  _101
REMARK   40  A    between atoms: _101  and  _102
REMARK   41  A    between atoms: _107  and  _109
REMARK   42  A    between atoms: _109  and  _110
REMARK   43  A    between atoms: _109  and  _112
REMARK   44  A    between atoms: _112  and  _113
REMARK   45  A    between atoms: _113  and  _114
REMARK   46  A    between atoms: _114  and  _115
REMARK   47  A    between atoms: _124  and  _126
REMARK   48  A    between atoms: _126  and  _127
REMARK   49  A    between atoms: _126  and  _129
REMARK   50  A    between atoms: _129  and  _130
REMARK   51  A    between atoms: _135  and  _137
REMARK   52  A    between atoms: _137  and  _138
REMARK   53  A    between atoms: _137  and  _140
REMARK   54  A    between atoms: _140  and  _141
REMARK   55  A    between atoms: _141  and  _142
REMARK   56  A    between atoms: _146  and  _147
REMARK   57  A    between atoms: _152  and  _154
REMARK   58  A    between atoms: _154  and  _155
REMARK   59  A    between atoms: _154  and  _157
REMARK   60  A    between atoms: _157  and  _158
REMARK   61  A    between atoms: _160  and  _162
REMARK   62  A    between atoms: _162  and  _163
REMARK   63  A    between atoms: _162  and  _165
REMARK   64  A    between atoms: _165  and  _166
REMARK   65  A    between atoms: _169  and  _171
REMARK   66  A    between atoms: _171  and  _172
REMARK   67  A    between atoms: _171  and  _174
REMARK   68  A    between atoms: _174  and  _175
REMARK   69  A    between atoms: _180  and  _182
REMARK   70  A    between atoms: _182  and  _183
REMARK   71  A    between atoms: _185  and  _187
REMARK   72  A    between atoms: _187  and  _188
REMARK   73  A    between atoms: _187  and  _190
REMARK   74  A    between atoms: _190  and  _191
REMARK   75  A    between atoms: _194  and  _196
REMARK   76  A    between atoms: _196  and  _197
REMARK   77  A    between atoms: _196  and  _199
REMARK   78  A    between atoms: _199  and  _200
REMARK   79  A    between atoms: _200  and  _201
REMARK   80  A    between atoms: _203  and  _205
REMARK   81  A    between atoms: _205  and  _206
REMARK   82  A    between atoms: _205  and  _208
REMARK   83  A    between atoms: _208  and  _209
REMARK   84  A    between atoms: _209  and  _210
REMARK   85  A    between atoms: _210  and  _211
REMARK   86  A    between atoms: _220  and  _222
REMARK   87  A    between atoms: _222  and  _223
REMARK   88  A    between atoms: _222  and  _225
REMARK   89  A    between atoms: _228  and  _230
REMARK   90  A    between atoms: _230  and  _231
REMARK   91  A    between atoms: _230  and  _233
REMARK   92  A    between atoms: _233  and  _234
REMARK   93  A    between atoms: _234  and  _235
REMARK   94  A    between atoms: _235  and  _236
REMARK   95  A    between atoms: _245  and  _247
REMARK   96  A    between atoms: _247  and  _248
REMARK   97  A    between atoms: _250  and  _252
REMARK   98  A    between atoms: _252  and  _253
REMARK   99  A    between atoms: _252  and  _255
REMARK  100  A    between atoms: _255  and  _256
REMARK  101  A    between atoms: _262  and  _264
REMARK  102  A    between atoms: _264  and  _265
REMARK  103  A    between atoms: _264  and  _267
REMARK  104  A    between atoms: _267  and  _268
REMARK  105  A    between atoms: _271  and  _273
REMARK  106  A    between atoms: _273  and  _274
REMARK  107  A    between atoms: _273  and  _276
REMARK  108  A    between atoms: _276  and  _277
REMARK  109  A    between atoms: _277  and  _278
REMARK  110  A    between atoms: _283  and  _285
REMARK  111  A    between atoms: _285  and  _286
REMARK  112  A    between atoms: _285  and  _288
REMARK  113  A    between atoms: _288  and  _289
REMARK  114  A    between atoms: _292  and  _294
REMARK  115  A    between atoms: _294  and  _295
REMARK  116  A    between atoms: _294  and  _297
REMARK  117  A    between atoms: _297  and  _298
REMARK  118  A    between atoms: _301  and  _303
REMARK  119  A    between atoms: _303  and  _304
REMARK  120  A    between atoms: _307  and  _309
REMARK  121  A    between atoms: _309  and  _310
REMARK  122  A    between atoms: _309  and  _312
REMARK  123  A    between atoms: _312  and  _313
REMARK  124  A    between atoms: _317  and  ZN_632
REMARK  125  A    between atoms: _318  and  _320
REMARK  126  A    between atoms: _320  and  _321
REMARK  127  A    between atoms: _320  and  _323
REMARK  128  A    between atoms: _323  and  _324
REMARK  129  A    between atoms: _327  and  _329
REMARK  130  A    between atoms: _329  and  _330
REMARK  131  A    between atoms: _329  and  _332
REMARK  132  A    between atoms: _332  and  _333
REMARK  133  A    between atoms: _335  and  _337
REMARK  134  A    between atoms: _337  and  _338
REMARK  135  A    between atoms: _337  and  _340
REMARK  136  A    between atoms: _340  and  _341
REMARK  137  A    between atoms: _341  and  _342
REMARK  138  A    between atoms: _345  and  _347
REMARK  139  A    between atoms: _347  and  _348
REMARK  140  A    between atoms: _350  and  _352
REMARK  141  A    between atoms: _352  and  _353
REMARK  142  A    between atoms: _356  and  _358
REMARK  143  A    between atoms: _358  and  _359
REMARK  144  A    between atoms: _358  and  _361
REMARK  145  A    between atoms: _361  and  _362
REMARK  146  A    between atoms: _368  and  _370
REMARK  147  A    between atoms: _370  and  _371
REMARK  148  A    between atoms: _370  and  _373
REMARK  149  A    between atoms: _373  and  _374
REMARK  150  A    between atoms: _379  and  _380
REMARK  151  A    between atoms: _382  and  _384
REMARK  152  A    between atoms: _384  and  _385
REMARK  153  A    between atoms: _384  and  _387
REMARK  154  A    between atoms: _387  and  _388
REMARK  155  A    between atoms: _388  and  _389
REMARK  156  A    between atoms: _389  and  _390
REMARK  157  A    between atoms: _390  and  _391
REMARK  158  A    between atoms: _395  and  _397
REMARK  159  A    between atoms: _397  and  _398
REMARK  160  A    between atoms: _397  and  _400
REMARK  161  A    between atoms: _400  and  _401
REMARK  162  A    between atoms: _404  and  _406
REMARK  163  A    between atoms: _406  and  _407
REMARK  164  A    between atoms: _406  and  _409
REMARK  165  A    between atoms: _409  and  _410
REMARK  166  A    between atoms: _410  and  _411
REMARK  167  A    between atoms: _414  and  _416
REMARK  168  A    between atoms: _416  and  _417
REMARK  169  A    between atoms: _416  and  _419
REMARK  170  A    between atoms: _419  and  _420
REMARK  171  A    between atoms: _430  and  _432
REMARK  172  A    between atoms: _432  and  _433
REMARK  173  A    between atoms: _432  and  _435
REMARK  174  A    between atoms: _435  and  _436
REMARK  175  A    between atoms: _436  and  _437
REMARK  176  A    between atoms: _442  and  _444
REMARK  177  A    between atoms: _444  and  _445
REMARK  178  A    between atoms: _444  and  _447
REMARK  179  A    between atoms: _449  and  _451
REMARK  180  A    between atoms: _451  and  _452
REMARK  181  A    between atoms: _454  and  _456
REMARK  182  A    between atoms: _456  and  _457
REMARK  183  A    between atoms: _456  and  _459
REMARK  184  A    between atoms: _459  and  _460
REMARK  185  A    between atoms: _463  and  _465
REMARK  186  A    between atoms: _465  and  _466
REMARK  187  A    between atoms: _465  and  _468
REMARK  188  A    between atoms: _471  and  _473
REMARK  189  A    between atoms: _473  and  _474
REMARK  190  A    between atoms: _473  and  _476
REMARK  191  A    between atoms: _476  and  _477
REMARK  192  A    between atoms: _477  and  _478
REMARK  193  A    between atoms: _483  and  _485
REMARK  194  A    between atoms: _485  and  _486
REMARK  195  A    between atoms: _485  and  _488
REMARK  196  A    between atoms: _488  and  _489
REMARK  197  A    between atoms: _492  and  _494
REMARK  198  A    between atoms: _494  and  _495
REMARK  199  A    between atoms: _494  and  _497
REMARK  200  A    between atoms: _497  and  _498
REMARK  201  A    between atoms: _501  and  _503
REMARK  202  A    between atoms: _503  and  _504
REMARK  203  A    between atoms: _503  and  _506
REMARK  204  A    between atoms: _506  and  _507
REMARK  205  A    between atoms: _507  and  _508
REMARK  206  A    between atoms: _510  and  _512
REMARK  207  A    between atoms: _512  and  _513
REMARK  208  A    between atoms: _512  and  _515
REMARK  209  A    between atoms: _515  and  _516
REMARK  210  A    between atoms: _519  and  _521
REMARK  211  A    between atoms: _521  and  _522
REMARK  212  A    between atoms: _521  and  _524
REMARK  213  A    between atoms: _524  and  _525
REMARK  214  A    between atoms: _526  and  ZN_632
REMARK  215  A    between atoms: _530  and  _532
REMARK  216  A    between atoms: _532  and  _533
REMARK  217  A    between atoms: _532  and  _535
REMARK  218  A    between atoms: _535  and  _536
REMARK  219  A    between atoms: _536  and  _537
REMARK  220  A    between atoms: _537  and  _538
REMARK  221  A    between atoms: _547  and  _549
REMARK  222  A    between atoms: _549  and  _550
REMARK  223  A    between atoms: _553  and  _555
REMARK  224  A    between atoms: _555  and  _556
REMARK  225  A    between atoms: _555  and  _558
REMARK  226  A    between atoms: _558  and  _559
REMARK  227  A    between atoms: _562  and  _564
REMARK  228  A    between atoms: _564  and  _565
REMARK  229  A    between atoms: _564  and  _567
REMARK  230  A    between atoms: _567  and  _568
REMARK  231  A    between atoms: _571  and  _573
REMARK  232  A    between atoms: _573  and  _574
REMARK  233  A    between atoms: _576  and  _578
REMARK  234  A    between atoms: _578  and  _579
REMARK  235  A    between atoms: _578  and  _581
REMARK  236  A    between atoms: _581  and  _582
REMARK  237  A    between atoms: _584  and  _586
REMARK  238  A    between atoms: _586  and  _587
REMARK  239  A    between atoms: _586  and  _589
REMARK  240  A    between atoms: _589  and  _590
REMARK  241  A    between atoms: _590  and  _591
REMARK  242  A    between atoms: _593  and  _595
REMARK  243  A    between atoms: _595  and  _596
REMARK  244  A    between atoms: _595  and  _598
REMARK  245  A    between atoms: _598  and  _599
REMARK  246  A    between atoms: _599  and  _600
REMARK  247  A    between atoms: _603  and  _605
REMARK  248  A    between atoms: _605  and  _606
REMARK  249  A    between atoms: _605  and  _608
REMARK  250  A    between atoms: _608  and  _609
REMARK  251  A    between atoms: _609  and  _610
REMARK  252  A    between atoms: _610  and  _611
REMARK  253  A    between atoms: _620  and  _622
REMARK  254  A    between atoms: _622  and  _623
REMARK  255  A    between atoms: _622  and  _625
REMARK  256  A    between atoms: _625  and  _626
REMARK                            x       y       z     vdW  Elec       q    Type
REMARK                         _______ _______ _______ _____ _____    ______ ____
ROOT
ATOM      1  O   HOH     1     -18.927 -41.938  15.856  0.00  0.00    +0.000 OA
ENDROOT
TORSDOF 0
REMARK  Name = ../refined-set-2016/4hwp/4hwp_pocket.pdb
REMARK  256 active torsions:
REMARK  status: ('A' for Active; 'I' for Inactive)
REMARK    1  A    between atoms: _1  and  _3
REMARK    2  A    between atoms: _3  and  _4
REMARK    3  A    between atoms: _6  and  _8
REMARK    4  A    between atoms: _8  and  _9
REMARK    5  A    between atoms: _8  and  _11
REMARK    6  A    between atoms: _11  and  _12
REMARK    7  A    between atoms: _17  and  _19
REMARK    8  A    between atoms: _19  and  _20
REMARK    9  A    between atoms: _19  and  _22
REMARK   10  A    between atoms: _22  and  _23
REMARK   11  A    between atoms: _28  and  _29
REMARK   12  A    between atoms: _31  and  _33
REMARK   13  A    between atoms: _33  and  _34
REMARK   14  A    between atoms: _38  and  _39
REMARK   15  A    between atoms: _44  and  _46
REMARK   16  A    between atoms: _46  and  _47
REMARK   17  A    between atoms: _46  and  _49
REMARK   18  A    between atoms: _49  and  _50
REMARK   19  A    between atoms: _50  and  _51
REMARK   20  A    between atoms: _53  and  _55
REMARK   21  A    between atoms: _55  and  _56
REMARK   22  A    between atoms: _55  and  _58
REMARK   23  A    between atoms: _58  and  _59
REMARK   24  A    between atoms: _64  and  _66
REMARK   25  A    between atoms: _66  and  _67
REMARK   26  A    between atoms: _66  and  _69
REMARK   27  A    between atoms: _69  and  _70
REMARK   28  A    between atoms: _70  and  ZN_632
REMARK   29  A    between atoms: _72  and  _73
REMARK   30  A    between atoms: _78  and  _80
REMARK   31  A    between atoms: _80  and  _81
REMARK   32  A    between atoms: _80  and  _83
REMARK   33  A    between atoms: _83  and  _84
REMARK   34  A    between atoms: _89  and  _91
REMARK   35  A    between atoms: _91  and  _92
REMARK   36  A    between atoms: _91  and  _94
REMARK   37  A    between atoms: _96  and  _98
REMARK   38  A    between atoms: _98  and  _99
REMARK   39  A    between atoms: _98  and  _101
REMARK   40  A    between atoms: _101  and  _102
REMARK   41  A    between atoms: _107  and  _109
REMARK   42  A    between atoms: _109  and  _110
REMARK   43  A    between atoms: _109  and  _112
REMARK   44  A    between atoms: _112  and  _113
REMARK   45  A    between atoms: _113  and  _114
REMARK   46  A    between atoms: _114  and  _115
REMARK   47  A    between atoms: _124  and  _126
REMARK   48  A    between atoms: _126  and  _127
REMARK   49  A    between atoms: _126  and  _129
REMARK   50  A    between atoms: _129  and  _130
REMARK   51  A    between atoms: _135  and  _137
REMARK   52  A    between atoms: _137  and  _138
REMARK   53  A    between atoms: _137  and  _140
REMARK   54  A    between atoms: _140  and  _141
REMARK   55  A    between atoms: _141  and  _142
REMARK   56  A    between atoms: _146  and  _147
REMARK   57  A    between atoms: _152  and  _154
REMARK   58  A    between atoms: _154  and  _155
REMARK   59  A    between atoms: _154  and  _157
REMARK   60  A    between atoms: _157  and  _158
REMARK   61  A    between atoms: _160  and  _162
REMARK   62  A    between atoms: _162  and  _163
REMARK   63  A    between atoms: _162  and  _165
REMARK   64  A    between atoms: _165  and  _166
REMARK   65  A    between atoms: _169  and  _171
REMARK   66  A    between atoms: _171  and  _172
REMARK   67  A    between atoms: _171  and  _174
REMARK   68  A    between atoms: _174  and  _175
REMARK   69  A    between atoms: _180  and  _182
REMARK   70  A    between atoms: _182  and  _183
REMARK   71  A    between atoms: _185  and  _187
REMARK   72  A    between atoms: _187  and  _188
REMARK   73  A    between atoms: _187  and  _190
REMARK   74  A    between atoms: _190  and  _191
REMARK   75  A    between atoms: _194  and  _196
REMARK   76  A    between atoms: _196  and  _197
REMARK   77  A    between atoms: _196  and  _199
REMARK   78  A    between atoms: _199  and  _200
REMARK   79  A    between atoms: _200  and  _201
REMARK   80  A    between atoms: _203  and  _205
REMARK   81  A    between atoms: _205  and  _206
REMARK   82  A    between atoms: _205  and  _208
REMARK   83  A    between atoms: _208  and  _209
REMARK   84  A    between atoms: _209  and  _210
REMARK   85  A    between atoms: _210  and  _211
REMARK   86  A    between atoms: _220  and  _222
REMARK   87  A    between atoms: _222  and  _223
REMARK   88  A    between atoms: _222  and  _225
REMARK   89  A    between atoms: _228  and  _230
REMARK   90  A    between atoms: _230  and  _231
REMARK   91  A    between atoms: _230  and  _233
REMARK   92  A    between atoms: _233  and  _234
REMARK   93  A    between atoms: _234  and  _235
REMARK   94  A    between atoms: _235  and  _236
REMARK   95  A    between atoms: _245  and  _247
REMARK   96  A    between atoms: _247  and  _248
REMARK   97  A    between atoms: _250  and  _252
REMARK   98  A    between atoms: _252  and  _253
REMARK   99  A    between atoms: _252  and  _255
REMARK  100  A    between atoms: _255  and  _256
REMARK  101  A    between atoms: _262  and  _264
REMARK  102  A    between atoms: _264  and  _265
REMARK  103  A    between atoms: _264  and  _267
REMARK  104  A    between atoms: _267  and  _268
REMARK  105  A    between atoms: _271  and  _273
REMARK  106  A    between atoms: _273  and  _274
REMARK  107  A    between atoms: _273  and  _276
REMARK  108  A    between atoms: _276  and  _277
REMARK  109  A    between atoms: _277  and  _278
REMARK  110  A    between atoms: _283  and  _285
REMARK  111  A    between atoms: _285  and  _286
REMARK  112  A    between atoms: _285  and  _288
REMARK  113  A    between atoms: _288  and  _289
REMARK  114  A    between atoms: _292  and  _294
REMARK  115  A    between atoms: _294  and  _295
REMARK  116  A    between atoms: _294  and  _297
REMARK  117  A    between atoms: _297  and  _298
REMARK  118  A    between atoms: _301  and  _303
REMARK  119  A    between atoms: _303  and  _304
REMARK  120  A    between atoms: _307  and  _309
REMARK  121  A    between atoms: _309  and  _310
REMARK  122  A    between atoms: _309  and  _312
REMARK  123  A    between atoms: _312  and  _313
REMARK  124  A    between atoms: _317  and  ZN_632
REMARK  125  A    between atoms: _318  and  _320
REMARK  126  A    between atoms: _320  and  _321
REMARK  127  A    between atoms: _320  and  _323
REMARK  128  A    between atoms: _323  and  _324
REMARK  129  A    between atoms: _327  and  _329
REMARK  130  A    between atoms: _329  and  _330
REMARK  131  A    between atoms: _329  and  _332
REMARK  132  A    between atoms: _332  and  _333
REMARK  133  A    between atoms: _335  and  _337
REMARK  134  A    between atoms: _337  and  _338
REMARK  135  A    between atoms: _337  and  _340
REMARK  136  A    between atoms: _340  and  _341
REMARK  137  A    between atoms: _341  and  _342
REMARK  138  A    between atoms: _345  and  _347
REMARK  139  A    between atoms: _347  and  _348
REMARK  140  A    between atoms: _350  and  _352
REMARK  141  A    between atoms: _352  and  _353
REMARK  142  A    between atoms: _356  and  _358
REMARK  143  A    between atoms: _358  and  _359
REMARK  144  A    between atoms: _358  and  _361
REMARK  145  A    between atoms: _361  and  _362
REMARK  146  A    between atoms: _368  and  _370
REMARK  147  A    between atoms: _370  and  _371
REMARK  148  A    between atoms: _370  and  _373
REMARK  149  A    between atoms: _373  and  _374
REMARK  150  A    between atoms: _379  and  _380
REMARK  151  A    between atoms: _382  and  _384
REMARK  152  A    between atoms: _384  and  _385
REMARK  153  A    between atoms: _384  and  _387
REMARK  154  A    between atoms: _387  and  _388
REMARK  155  A    between atoms: _388  and  _389
REMARK  156  A    between atoms: _389  and  _390
REMARK  157  A    between atoms: _390  and  _391
REMARK  158  A    between atoms: _395  and  _397
REMARK  159  A    between atoms: _397  and  _398
REMARK  160  A    between atoms: _397  and  _400
REMARK  161  A    between atoms: _400  and  _401
REMARK  162  A    between atoms: _404  and  _406
REMARK  163  A    between atoms: _406  and  _407
REMARK  164  A    between atoms: _406  and  _409
REMARK  165  A    between atoms: _409  and  _410
REMARK  166  A    between atoms: _410  and  _411
REMARK  167  A    between atoms: _414  and  _416
REMARK  168  A    between atoms: _416  and  _417
REMARK  169  A    between atoms: _416  and  _419
REMARK  170  A    between atoms: _419  and  _420
REMARK  171  A    between atoms: _430  and  _432
REMARK  172  A    between atoms: _432  and  _433
REMARK  173  A    between atoms: _432  and  _435
REMARK  174  A    between atoms: _435  and  _436
REMARK  175  A    between atoms: _436  and  _437
REMARK  176  A    between atoms: _442  and  _444
REMARK  177  A    between atoms: _444  and  _445
REMARK  178  A    between atoms: _444  and  _447
REMARK  179  A    between atoms: _449  and  _451
REMARK  180  A    between atoms: _451  and  _452
REMARK  181  A    between atoms: _454  and  _456
REMARK  182  A    between atoms: _456  and  _457
REMARK  183  A    between atoms: _456  and  _459
REMARK  184  A    between atoms: _459  and  _460
REMARK  185  A    between atoms: _463  and  _465
REMARK  186  A    between atoms: _465  and  _466
REMARK  187  A    between atoms: _465  and  _468
REMARK  188  A    between atoms: _471  and  _473
REMARK  189  A    between atoms: _473  and  _474
REMARK  190  A    between atoms: _473  and  _476
REMARK  191  A    between atoms: _476  and  _477
REMARK  192  A    between atoms: _477  and  _478
REMARK  193  A    between atoms: _483  and  _485
REMARK  194  A    between atoms: _485  and  _486
REMARK  195  A    between atoms: _485  and  _488
REMARK  196  A    between atoms: _488  and  _489
REMARK  197  A    between atoms: _492  and  _494
REMARK  198  A    between atoms: _494  and  _495
REMARK  199  A    between atoms: _494  and  _497
REMARK  200  A    between atoms: _497  and  _498
REMARK  201  A    between atoms: _501  and  _503
REMARK  202  A    between atoms: _503  and  _504
REMARK  203  A    between atoms: _503  and  _506
REMARK  204  A    between atoms: _506  and  _507
REMARK  205  A    between atoms: _507  and  _508
REMARK  206  A    between atoms: _510  and  _512
REMARK  207  A    between atoms: _512  and  _513
REMARK  208  A    between atoms: _512  and  _515
REMARK  209  A    between atoms: _515  and  _516
REMARK  210  A    between atoms: _519  and  _521
REMARK  211  A    between atoms: _521  and  _522
REMARK  212  A    between atoms: _521  and  _524
REMARK  213  A    between atoms: _524  and  _525
REMARK  214  A    between atoms: _526  and  ZN_632
REMARK  215  A    between atoms: _530  and  _532
REMARK  216  A    between atoms: _532  and  _533
REMARK  217  A    between atoms: _532  and  _535
REMARK  218  A    between atoms: _535  and  _536
REMARK  219  A    between atoms: _536  and  _537
REMARK  220  A    between atoms: _537  and  _538
REMARK  221  A    between atoms: _547  and  _549
REMARK  222  A    between atoms: _549  and  _550
REMARK  223  A    between atoms: _553  and  _555
REMARK  224  A    between atoms: _555  and  _556
REMARK  225  A    between atoms: _555  and  _558
REMARK  226  A    between atoms: _558  and  _559
REMARK  227  A    between atoms: _562  and  _564
REMARK  228  A    between atoms: _564  and  _565
REMARK  229  A    between atoms: _564  and  _567
REMARK  230  A    between atoms: _567  and  _568
REMARK  231  A    between atoms: _571  and  _573
REMARK  232  A    between atoms: _573  and  _574
REMARK  233  A    between atoms: _576  and  _578
REMARK  234  A    between atoms: _578  and  _579
REMARK  235  A    between atoms: _578  and  _581
REMARK  236  A    between atoms: _581  and  _582
REMARK  237  A    between atoms: _584  and  _586
REMARK  238  A    between atoms: _586  and  _587
REMARK  239  A    between atoms: _586  and  _589
REMARK  240  A    between atoms: _589  and  _590
REMARK  241  A    between atoms: _590  and  _591
REMARK  242  A    between atoms: _593  and  _595
REMARK  243  A    between atoms: _595  and  _596
REMARK  244  A    between atoms: _595  and  _598
REMARK  245  A    between atoms: _598  and  _599
REMARK  246  A    between atoms: _599  and  _600
REMARK  247  A    between atoms: _603  and  _605
REMARK  248  A    between atoms: _605  and  _606
REMARK  249  A    between atoms: _605  and  _608
REMARK  250  A    between atoms: _608  and  _609
REMARK  251  A    between atoms: _609  and  _610
REMARK  252  A    between atoms: _610  and  _611
REMARK  253  A    between atoms: _620  and  _622
REMARK  254  A    between atoms: _622  and  _623
REMARK  255  A    between atoms: _622  and  _625
REMARK  256  A    between atoms: _625  and  _626
REMARK                            x       y       z     vdW  Elec       q    Type
REMARK                         _______ _______ _______ _____ _____    ______ ____
ROOT
ATOM      1  O   HOH     1     -13.491 -42.742  13.321  0.00  0.00    +0.000 OA
ENDROOT
TORSDOF 0
REMARK  Name = ../refined-set-2016/4hwp/4hwp_pocket.pdb
REMARK  256 active torsions:
REMARK  status: ('A' for Active; 'I' for Inactive)
REMARK    1  A    between atoms: _1  and  _3
REMARK    2  A    between atoms: _3  and  _4
REMARK    3  A    between atoms: _6  and  _8
REMARK    4  A    between atoms: _8  and  _9
REMARK    5  A    between atoms: _8  and  _11
REMARK    6  A    between atoms: _11  and  _12
REMARK    7  A    between atoms: _17  and  _19
REMARK    8  A    between atoms: _19  and  _20
REMARK    9  A    between atoms: _19  and  _22
REMARK   10  A    between atoms: _22  and  _23
REMARK   11  A    between atoms: _28  and  _29
REMARK   12  A    between atoms: _31  and  _33
REMARK   13  A    between atoms: _33  and  _34
REMARK   14  A    between atoms: _38  and  _39
REMARK   15  A    between atoms: _44  and  _46
REMARK   16  A    between atoms: _46  and  _47
REMARK   17  A    between atoms: _46  and  _49
REMARK   18  A    between atoms: _49  and  _50
REMARK   19  A    between atoms: _50  and  _51
REMARK   20  A    between atoms: _53  and  _55
REMARK   21  A    between atoms: _55  and  _56
REMARK   22  A    between atoms: _55  and  _58
REMARK   23  A    between atoms: _58  and  _59
REMARK   24  A    between atoms: _64  and  _66
REMARK   25  A    between atoms: _66  and  _67
REMARK   26  A    between atoms: _66  and  _69
REMARK   27  A    between atoms: _69  and  _70
REMARK   28  A    between atoms: _70  and  ZN_632
REMARK   29  A    between atoms: _72  and  _73
REMARK   30  A    between atoms: _78  and  _80
REMARK   31  A    between atoms: _80  and  _81
REMARK   32  A    between atoms: _80  and  _83
REMARK   33  A    between atoms: _83  and  _84
REMARK   34  A    between atoms: _89  and  _91
REMARK   35  A    between atoms: _91  and  _92
REMARK   36  A    between atoms: _91  and  _94
REMARK   37  A    between atoms: _96  and  _98
REMARK   38  A    between atoms: _98  and  _99
REMARK   39  A    between atoms: _98  and  _101
REMARK   40  A    between atoms: _101  and  _102
REMARK   41  A    between atoms: _107  and  _109
REMARK   42  A    between atoms: _109  and  _110
REMARK   43  A    between atoms: _109  and  _112
REMARK   44  A    between atoms: _112  and  _113
REMARK   45  A    between atoms: _113  and  _114
REMARK   46  A    between atoms: _114  and  _115
REMARK   47  A    between atoms: _124  and  _126
REMARK   48  A    between atoms: _126  and  _127
REMARK   49  A    between atoms: _126  and  _129
REMARK   50  A    between atoms: _129  and  _130
REMARK   51  A    between atoms: _135  and  _137
REMARK   52  A    between atoms: _137  and  _138
REMARK   53  A    between atoms: _137  and  _140
REMARK   54  A    between atoms: _140  and  _141
REMARK   55  A    between atoms: _141  and  _142
REMARK   56  A    between atoms: _146  and  _147
REMARK   57  A    between atoms: _152  and  _154
REMARK   58  A    between atoms: _154  and  _155
REMARK   59  A    between atoms: _154  and  _157
REMARK   60  A    between atoms: _157  and  _158
REMARK   61  A    between atoms: _160  and  _162
REMARK   62  A    between atoms: _162  and  _163
REMARK   63  A    between atoms: _162  and  _165
REMARK   64  A    between atoms: _165  and  _166
REMARK   65  A    between atoms: _169  and  _171
REMARK   66  A    between atoms: _171  and  _172
REMARK   67  A    between atoms: _171  and  _174
REMARK   68  A    between atoms: _174  and  _175
REMARK   69  A    between atoms: _180  and  _182
REMARK   70  A    between atoms: _182  and  _183
REMARK   71  A    between atoms: _185  and  _187
REMARK   72  A    between atoms: _187  and  _188
REMARK   73  A    between atoms: _187  and  _190
REMARK   74  A    between atoms: _190  and  _191
REMARK   75  A    between atoms: _194  and  _196
REMARK   76  A    between atoms: _196  and  _197
REMARK   77  A    between atoms: _196  and  _199
REMARK   78  A    between atoms: _199  and  _200
REMARK   79  A    between atoms: _200  and  _201
REMARK   80  A    between atoms: _203  and  _205
REMARK   81  A    between atoms: _205  and  _206
REMARK   82  A    between atoms: _205  and  _208
REMARK   83  A    between atoms: _208  and  _209
REMARK   84  A    between atoms: _209  and  _210
REMARK   85  A    between atoms: _210  and  _211
REMARK   86  A    between atoms: _220  and  _222
REMARK   87  A    between atoms: _222  and  _223
REMARK   88  A    between atoms: _222  and  _225
REMARK   89  A    between atoms: _228  and  _230
REMARK   90  A    between atoms: _230  and  _231
REMARK   91  A    between atoms: _230  and  _233
REMARK   92  A    between atoms: _233  and  _234
REMARK   93  A    between atoms: _234  and  _235
REMARK   94  A    between atoms: _235  and  _236
REMARK   95  A    between atoms: _245  and  _247
REMARK   96  A    between atoms: _247  and  _248
REMARK   97  A    between atoms: _250  and  _252
REMARK   98  A    between atoms: _252  and  _253
REMARK   99  A    between atoms: _252  and  _255
REMARK  100  A    between atoms: _255  and  _256
REMARK  101  A    between atoms: _262  and  _264
REMARK  102  A    between atoms: _264  and  _265
REMARK  103  A    between atoms: _264  and  _267
REMARK  104  A    between atoms: _267  and  _268
REMARK  105  A    between atoms: _271  and  _273
REMARK  106  A    between atoms: _273  and  _274
REMARK  107  A    between atoms: _273  and  _276
REMARK  108  A    between atoms: _276  and  _277
REMARK  109  A    between atoms: _277  and  _278
REMARK  110  A    between atoms: _283  and  _285
REMARK  111  A    between atoms: _285  and  _286
REMARK  112  A    between atoms: _285  and  _288
REMARK  113  A    between atoms: _288  and  _289
REMARK  114  A    between atoms: _292  and  _294
REMARK  115  A    between atoms: _294  and  _295
REMARK  116  A    between atoms: _294  and  _297
REMARK  117  A    between atoms: _297  and  _298
REMARK  118  A    between atoms: _301  and  _303
REMARK  119  A    between atoms: _303  and  _304
REMARK  120  A    between atoms: _307  and  _309
REMARK  121  A    between atoms: _309  and  _310
REMARK  122  A    between atoms: _309  and  _312
REMARK  123  A    between atoms: _312  and  _313
REMARK  124  A    between atoms: _317  and  ZN_632
REMARK  125  A    between atoms: _318  and  _320
REMARK  126  A    between atoms: _320  and  _321
REMARK  127  A    between atoms: _320  and  _323
REMARK  128  A    between atoms: _323  and  _324
REMARK  129  A    between atoms: _327  and  _329
REMARK  130  A    between atoms: _329  and  _330
REMARK  131  A    between atoms: _329  and  _332
REMARK  132  A    between atoms: _332  and  _333
REMARK  133  A    between atoms: _335  and  _337
REMARK  134  A    between atoms: _337  and  _338
REMARK  135  A    between atoms: _337  and  _340
REMARK  136  A    between atoms: _340  and  _341
REMARK  137  A    between atoms: _341  and  _342
REMARK  138  A    between atoms: _345  and  _347
REMARK  139  A    between atoms: _347  and  _348
REMARK  140  A    between atoms: _350  and  _352
REMARK  141  A    between atoms: _352  and  _353
REMARK  142  A    between atoms: _356  and  _358
REMARK  143  A    between atoms: _358  and  _359
REMARK  144  A    between atoms: _358  and  _361
REMARK  145  A    between atoms: _361  and  _362
REMARK  146  A    between atoms: _368  and  _370
REMARK  147  A    between atoms: _370  and  _371
REMARK  148  A    between atoms: _370  and  _373
REMARK  149  A    between atoms: _373  and  _374
REMARK  150  A    between atoms: _379  and  _380
REMARK  151  A    between atoms: _382  and  _384
REMARK  152  A    between atoms: _384  and  _385
REMARK  153  A    between atoms: _384  and  _387
REMARK  154  A    between atoms: _387  and  _388
REMARK  155  A    between atoms: _388  and  _389
REMARK  156  A    between atoms: _389  and  _390
REMARK  157  A    between atoms: _390  and  _391
REMARK  158  A    between atoms: _395  and  _397
REMARK  159  A    between atoms: _397  and  _398
REMARK  160  A    between atoms: _397  and  _400
REMARK  161  A    between atoms: _400  and  _401
REMARK  162  A    between atoms: _404  and  _406
REMARK  163  A    between atoms: _406  and  _407
REMARK  164  A    between atoms: _406  and  _409
REMARK  165  A    between atoms: _409  and  _410
REMARK  166  A    between atoms: _410  and  _411
REMARK  167  A    between atoms: _414  and  _416
REMARK  168  A    between atoms: _416  and  _417
REMARK  169  A    between atoms: _416  and  _419
REMARK  170  A    between atoms: _419  and  _420
REMARK  171  A    between atoms: _430  and  _432
REMARK  172  A    between atoms: _432  and  _433
REMARK  173  A    between atoms: _432  and  _435
REMARK  174  A    between atoms: _435  and  _436
REMARK  175  A    between atoms: _436  and  _437
REMARK  176  A    between atoms: _442  and  _444
REMARK  177  A    between atoms: _444  and  _445
REMARK  178  A    between atoms: _444  and  _447
REMARK  179  A    between atoms: _449  and  _451
REMARK  180  A    between atoms: _451  and  _452
REMARK  181  A    between atoms: _454  and  _456
REMARK  182  A    between atoms: _456  and  _457
REMARK  183  A    between atoms: _456  and  _459
REMARK  184  A    between atoms: _459  and  _460
REMARK  185  A    between atoms: _463  and  _465
REMARK  186  A    between atoms: _465  and  _466
REMARK  187  A    between atoms: _465  and  _468
REMARK  188  A    between atoms: _471  and  _473
REMARK  189  A    between atoms: _473  and  _474
REMARK  190  A    between atoms: _473  and  _476
REMARK  191  A    between atoms: _476  and  _477
REMARK  192  A    between atoms: _477  and  _478
REMARK  193  A    between atoms: _483  and  _485
REMARK  194  A    between atoms: _485  and  _486
REMARK  195  A    between atoms: _485  and  _488
REMARK  196  A    between atoms: _488  and  _489
REMARK  197  A    between atoms: _492  and  _494
REMARK  198  A    between atoms: _494  and  _495
REMARK  199  A    between atoms: _494  and  _497
REMARK  200  A    between atoms: _497  and  _498
REMARK  201  A    between atoms: _501  and  _503
REMARK  202  A    between atoms: _503  and  _504
REMARK  203  A    between atoms: _503  and  _506
REMARK  204  A    between atoms: _506  and  _507
REMARK  205  A    between atoms: _507  and  _508
REMARK  206  A    between atoms: _510  and  _512
REMARK  207  A    between atoms: _512  and  _513
REMARK  208  A    between atoms: _512  and  _515
REMARK  209  A    between atoms: _515  and  _516
REMARK  210  A    between atoms: _519  and  _521
REMARK  211  A    between atoms: _521  and  _522
REMARK  212  A    between atoms: _521  and  _524
REMARK  213  A    between atoms: _524  and  _525
REMARK  214  A    between atoms: _526  and  ZN_632
REMARK  215  A    between atoms: _530  and  _532
REMARK  216  A    between atoms: _532  and  _533
REMARK  217  A    between atoms: _532  and  _535
REMARK  218  A    between atoms: _535  and  _536
REMARK  219  A    between atoms: _536  and  _537
REMARK  220  A    between atoms: _537  and  _538
REMARK  221  A    between atoms: _547  and  _549
REMARK  222  A    between atoms: _549  and  _550
REMARK  223  A    between atoms: _553  and  _555
REMARK  224  A    between atoms: _555  and  _556
REMARK  225  A    between atoms: _555  and  _558
REMARK  226  A    between atoms: _558  and  _559
REMARK  227  A    between atoms: _562  and  _564
REMARK  228  A    between atoms: _564  and  _565
REMARK  229  A    between atoms: _564  and  _567
REMARK  230  A    between atoms: _567  and  _568
REMARK  231  A    between atoms: _571  and  _573
REMARK  232  A    between atoms: _573  and  _574
REMARK  233  A    between atoms: _576  and  _578
REMARK  234  A    between atoms: _578  and  _579
REMARK  235  A    between atoms: _578  and  _581
REMARK  236  A    between atoms: _581  and  _582
REMARK  237  A    between atoms: _584  and  _586
REMARK  238  A    between atoms: _586  and  _587
REMARK  239  A    between atoms: _586  and  _589
REMARK  240  A    between atoms: _589  and  _590
REMARK  241  A    between atoms: _590  and  _591
REMARK  242  A    between atoms: _593  and  _595
REMARK  243  A    between atoms: _595  and  _596
REMARK  244  A    between atoms: _595  and  _598
REMARK  245  A    between atoms: _598  and  _599
REMARK  246  A    between atoms: _599  and  _600
REMARK  247  A    between atoms: _603  and  _605
REMARK  248  A    between atoms: _605  and  _606
REMARK  249  A    between atoms: _605  and  _608
REMARK  250  A    between atoms: _608  and  _609
REMARK  251  A    between atoms: _609  and  _610
REMARK  252  A    between atoms: _610  and  _611
REMARK  253  A    between atoms: _620  and  _622
REMARK  254  A    between atoms: _622  and  _623
REMARK  255  A    between atoms: _622  and  _625
REMARK  256  A    between atoms: _625  and  _626
REMARK                            x       y       z     vdW  Elec       q    Type
REMARK                         _______ _______ _______ _____ _____    ______ ____
ROOT
ATOM      1  O   HOH     1     -14.767 -40.868  13.967  0.00  0.00    +0.000 OA
ENDROOT
TORSDOF 0
REMARK  Name = ../refined-set-2016/4hwp/4hwp_pocket.pdb
REMARK  256 active torsions:
REMARK  status: ('A' for Active; 'I' for Inactive)
REMARK    1  A    between atoms: _1  and  _3
REMARK    2  A    between atoms: _3  and  _4
REMARK    3  A    between atoms: _6  and  _8
REMARK    4  A    between atoms: _8  and  _9
REMARK    5  A    between atoms: _8  and  _11
REMARK    6  A    between atoms: _11  and  _12
REMARK    7  A    between atoms: _17  and  _19
REMARK    8  A    between atoms: _19  and  _20
REMARK    9  A    between atoms: _19  and  _22
REMARK   10  A    between atoms: _22  and  _23
REMARK   11  A    between atoms: _28  and  _29
REMARK   12  A    between atoms: _31  and  _33
REMARK   13  A    between atoms: _33  and  _34
REMARK   14  A    between atoms: _38  and  _39
REMARK   15  A    between atoms: _44  and  _46
REMARK   16  A    between atoms: _46  and  _47
REMARK   17  A    between atoms: _46  and  _49
REMARK   18  A    between atoms: _49  and  _50
REMARK   19  A    between atoms: _50  and  _51
REMARK   20  A    between atoms: _53  and  _55
REMARK   21  A    between atoms: _55  and  _56
REMARK   22  A    between atoms: _55  and  _58
REMARK   23  A    between atoms: _58  and  _59
REMARK   24  A    between atoms: _64  and  _66
REMARK   25  A    between atoms: _66  and  _67
REMARK   26  A    between atoms: _66  and  _69
REMARK   27  A    between atoms: _69  and  _70
REMARK   28  A    between atoms: _70  and  ZN_632
REMARK   29  A    between atoms: _72  and  _73
REMARK   30  A    between atoms: _78  and  _80
REMARK   31  A    between atoms: _80  and  _81
REMARK   32  A    between atoms: _80  and  _83
REMARK   33  A    between atoms: _83  and  _84
REMARK   34  A    between atoms: _89  and  _91
REMARK   35  A    between atoms: _91  and  _92
REMARK   36  A    between atoms: _91  and  _94
REMARK   37  A    between atoms: _96  and  _98
REMARK   38  A    between atoms: _98  and  _99
REMARK   39  A    between atoms: _98  and  _101
REMARK   40  A    between atoms: _101  and  _102
REMARK   41  A    between atoms: _107  and  _109
REMARK   42  A    between atoms: _109  and  _110
REMARK   43  A    between atoms: _109  and  _112
REMARK   44  A    between atoms: _112  and  _113
REMARK   45  A    between atoms: _113  and  _114
REMARK   46  A    between atoms: _114  and  _115
REMARK   47  A    between atoms: _124  and  _126
REMARK   48  A    between atoms: _126  and  _127
REMARK   49  A    between atoms: _126  and  _129
REMARK   50  A    between atoms: _129  and  _130
REMARK   51  A    between atoms: _135  and  _137
REMARK   52  A    between atoms: _137  and  _138
REMARK   53  A    between atoms: _137  and  _140
REMARK   54  A    between atoms: _140  and  _141
REMARK   55  A    between atoms: _141  and  _142
REMARK   56  A    between atoms: _146  and  _147
REMARK   57  A    between atoms: _152  and  _154
REMARK   58  A    between atoms: _154  and  _155
REMARK   59  A    between atoms: _154  and  _157
REMARK   60  A    between atoms: _157  and  _158
REMARK   61  A    between atoms: _160  and  _162
REMARK   62  A    between atoms: _162  and  _163
REMARK   63  A    between atoms: _162  and  _165
REMARK   64  A    between atoms: _165  and  _166
REMARK   65  A    between atoms: _169  and  _171
REMARK   66  A    between atoms: _171  and  _172
REMARK   67  A    between atoms: _171  and  _174
REMARK   68  A    between atoms: _174  and  _175
REMARK   69  A    between atoms: _180  and  _182
REMARK   70  A    between atoms: _182  and  _183
REMARK   71  A    between atoms: _185  and  _187
REMARK   72  A    between atoms: _187  and  _188
REMARK   73  A    between atoms: _187  and  _190
REMARK   74  A    between atoms: _190  and  _191
REMARK   75  A    between atoms: _194  and  _196
REMARK   76  A    between atoms: _196  and  _197
REMARK   77  A    between atoms: _196  and  _199
REMARK   78  A    between atoms: _199  and  _200
REMARK   79  A    between atoms: _200  and  _201
REMARK   80  A    between atoms: _203  and  _205
REMARK   81  A    between atoms: _205  and  _206
REMARK   82  A    between atoms: _205  and  _208
REMARK   83  A    between atoms: _208  and  _209
REMARK   84  A    between atoms: _209  and  _210
REMARK   85  A    between atoms: _210  and  _211
REMARK   86  A    between atoms: _220  and  _222
REMARK   87  A    between atoms: _222  and  _223
REMARK   88  A    between atoms: _222  and  _225
REMARK   89  A    between atoms: _228  and  _230
REMARK   90  A    between atoms: _230  and  _231
REMARK   91  A    between atoms: _230  and  _233
REMARK   92  A    between atoms: _233  and  _234
REMARK   93  A    between atoms: _234  and  _235
REMARK   94  A    between atoms: _235  and  _236
REMARK   95  A    between atoms: _245  and  _247
REMARK   96  A    between atoms: _247  and  _248
REMARK   97  A    between atoms: _250  and  _252
REMARK   98  A    between atoms: _252  and  _253
REMARK   99  A    between atoms: _252  and  _255
REMARK  100  A    between atoms: _255  and  _256
REMARK  101  A    between atoms: _262  and  _264
REMARK  102  A    between atoms: _264  and  _265
REMARK  103  A    between atoms: _264  and  _267
REMARK  104  A    between atoms: _267  and  _268
REMARK  105  A    between atoms: _271  and  _273
REMARK  106  A    between atoms: _273  and  _274
REMARK  107  A    between atoms: _273  and  _276
REMARK  108  A    between atoms: _276  and  _277
REMARK  109  A    between atoms: _277  and  _278
REMARK  110  A    between atoms: _283  and  _285
REMARK  111  A    between atoms: _285  and  _286
REMARK  112  A    between atoms: _285  and  _288
REMARK  113  A    between atoms: _288  and  _289
REMARK  114  A    between atoms: _292  and  _294
REMARK  115  A    between atoms: _294  and  _295
REMARK  116  A    between atoms: _294  and  _297
REMARK  117  A    between atoms: _297  and  _298
REMARK  118  A    between atoms: _301  and  _303
REMARK  119  A    between atoms: _303  and  _304
REMARK  120  A    between atoms: _307  and  _309
REMARK  121  A    between atoms: _309  and  _310
REMARK  122  A    between atoms: _309  and  _312
REMARK  123  A    between atoms: _312  and  _313
REMARK  124  A    between atoms: _317  and  ZN_632
REMARK  125  A    between atoms: _318  and  _320
REMARK  126  A    between atoms: _320  and  _321
REMARK  127  A    between atoms: _320  and  _323
REMARK  128  A    between atoms: _323  and  _324
REMARK  129  A    between atoms: _327  and  _329
REMARK  130  A    between atoms: _329  and  _330
REMARK  131  A    between atoms: _329  and  _332
REMARK  132  A    between atoms: _332  and  _333
REMARK  133  A    between atoms: _335  and  _337
REMARK  134  A    between atoms: _337  and  _338
REMARK  135  A    between atoms: _337  and  _340
REMARK  136  A    between atoms: _340  and  _341
REMARK  137  A    between atoms: _341  and  _342
REMARK  138  A    between atoms: _345  and  _347
REMARK  139  A    between atoms: _347  and  _348
REMARK  140  A    between atoms: _350  and  _352
REMARK  141  A    between atoms: _352  and  _353
REMARK  142  A    between atoms: _356  and  _358
REMARK  143  A    between atoms: _358  and  _359
REMARK  144  A    between atoms: _358  and  _361
REMARK  145  A    between atoms: _361  and  _362
REMARK  146  A    between atoms: _368  and  _370
REMARK  147  A    between atoms: _370  and  _371
REMARK  148  A    between atoms: _370  and  _373
REMARK  149  A    between atoms: _373  and  _374
REMARK  150  A    between atoms: _379  and  _380
REMARK  151  A    between atoms: _382  and  _384
REMARK  152  A    between atoms: _384  and  _385
REMARK  153  A    between atoms: _384  and  _387
REMARK  154  A    between atoms: _387  and  _388
REMARK  155  A    between atoms: _388  and  _389
REMARK  156  A    between atoms: _389  and  _390
REMARK  157  A    between atoms: _390  and  _391
REMARK  158  A    between atoms: _395  and  _397
REMARK  159  A    between atoms: _397  and  _398
REMARK  160  A    between atoms: _397  and  _400
REMARK  161  A    between atoms: _400  and  _401
REMARK  162  A    between atoms: _404  and  _406
REMARK  163  A    between atoms: _406  and  _407
REMARK  164  A    between atoms: _406  and  _409
REMARK  165  A    between atoms: _409  and  _410
REMARK  166  A    between atoms: _410  and  _411
REMARK  167  A    between atoms: _414  and  _416
REMARK  168  A    between atoms: _416  and  _417
REMARK  169  A    between atoms: _416  and  _419
REMARK  170  A    between atoms: _419  and  _420
REMARK  171  A    between atoms: _430  and  _432
REMARK  172  A    between atoms: _432  and  _433
REMARK  173  A    between atoms: _432  and  _435
REMARK  174  A    between atoms: _435  and  _436
REMARK  175  A    between atoms: _436  and  _437
REMARK  176  A    between atoms: _442  and  _444
REMARK  177  A    between atoms: _444  and  _445
REMARK  178  A    between atoms: _444  and  _447
REMARK  179  A    between atoms: _449  and  _451
REMARK  180  A    between atoms: _451  and  _452
REMARK  181  A    between atoms: _454  and  _456
REMARK  182  A    between atoms: _456  and  _457
REMARK  183  A    between atoms: _456  and  _459
REMARK  184  A    between atoms: _459  and  _460
REMARK  185  A    between atoms: _463  and  _465
REMARK  186  A    between atoms: _465  and  _466
REMARK  187  A    between atoms: _465  and  _468
REMARK  188  A    between atoms: _471  and  _473
REMARK  189  A    between atoms: _473  and  _474
REMARK  190  A    between atoms: _473  and  _476
REMARK  191  A    between atoms: _476  and  _477
REMARK  192  A    between atoms: _477  and  _478
REMARK  193  A    between atoms: _483  and  _485
REMARK  194  A    between atoms: _485  and  _486
REMARK  195  A    between atoms: _485  and  _488
REMARK  196  A    between atoms: _488  and  _489
REMARK  197  A    between atoms: _492  and  _494
REMARK  198  A    between atoms: _494  and  _495
REMARK  199  A    between atoms: _494  and  _497
REMARK  200  A    between atoms: _497  and  _498
REMARK  201  A    between atoms: _501  and  _503
REMARK  202  A    between atoms: _503  and  _504
REMARK  203  A    between atoms: _503  and  _506
REMARK  204  A    between atoms: _506  and  _507
REMARK  205  A    between atoms: _507  and  _508
REMARK  206  A    between atoms: _510  and  _512
REMARK  207  A    between atoms: _512  and  _513
REMARK  208  A    between atoms: _512  and  _515
REMARK  209  A    between atoms: _515  and  _516
REMARK  210  A    between atoms: _519  and  _521
REMARK  211  A    between atoms: _521  and  _522
REMARK  212  A    between atoms: _521  and  _524
REMARK  213  A    between atoms: _524  and  _525
REMARK  214  A    between atoms: _526  and  ZN_632
REMARK  215  A    between atoms: _530  and  _532
REMARK  216  A    between atoms: _532  and  _533
REMARK  217  A    between atoms: _532  and  _535
REMARK  218  A    between atoms: _535  and  _536
REMARK  219  A    between atoms: _536  and  _537
REMARK  220  A    between atoms: _537  and  _538
REMARK  221  A    between atoms: _547  and  _549
REMARK  222  A    between atoms: _549  and  _550
REMARK  223  A    between atoms: _553  and  _555
REMARK  224  A    between atoms: _555  and  _556
REMARK  225  A    between atoms: _555  and  _558
REMARK  226  A    between atoms: _558  and  _559
REMARK  227  A    between atoms: _562  and  _564
REMARK  228  A    between atoms: _564  and  _565
REMARK  229  A    between atoms: _564  and  _567
REMARK  230  A    between atoms: _567  and  _568
REMARK  231  A    between atoms: _571  and  _573
REMARK  232  A    between atoms: _573  and  _574
REMARK  233  A    between atoms: _576  and  _578
REMARK  234  A    between atoms: _578  and  _579
REMARK  235  A    between atoms: _578  and  _581
REMARK  236  A    between atoms: _581  and  _582
REMARK  237  A    between atoms: _584  and  _586
REMARK  238  A    between atoms: _586  and  _587
REMARK  239  A    between atoms: _586  and  _589
REMARK  240  A    between atoms: _589  and  _590
REMARK  241  A    between atoms: _590  and  _591
REMARK  242  A    between atoms: _593  and  _595
REMARK  243  A    between atoms: _595  and  _596
REMARK  244  A    between atoms: _595  and  _598
REMARK  245  A    between atoms: _598  and  _599
REMARK  246  A    between atoms: _599  and  _600
REMARK  247  A    between atoms: _603  and  _605
REMARK  248  A    between atoms: _605  and  _606
REMARK  249  A    between atoms: _605  and  _608
REMARK  250  A    between atoms: _608  and  _609
REMARK  251  A    between atoms: _609  and  _610
REMARK  252  A    between atoms: _610  and  _611
REMARK  253  A    between atoms: _620  and  _622
REMARK  254  A    between atoms: _622  and  _623
REMARK  255  A    between atoms: _622  and  _625
REMARK  256  A    between atoms: _625  and  _626
REMARK                            x       y       z     vdW  Elec       q    Type
REMARK                         _______ _______ _______ _____ _____    ______ ____
ROOT
ATOM      1  O   HOH     1     -19.811 -39.358   6.185  0.00  0.00    +0.000 OA
ENDROOT
TORSDOF 0
REMARK  Name = ../refined-set-2016/4hwp/4hwp_pocket.pdb
REMARK  256 active torsions:
REMARK  status: ('A' for Active; 'I' for Inactive)
REMARK    1  A    between atoms: _1  and  _3
REMARK    2  A    between atoms: _3  and  _4
REMARK    3  A    between atoms: _6  and  _8
REMARK    4  A    between atoms: _8  and  _9
REMARK    5  A    between atoms: _8  and  _11
REMARK    6  A    between atoms: _11  and  _12
REMARK    7  A    between atoms: _17  and  _19
REMARK    8  A    between atoms: _19  and  _20
REMARK    9  A    between atoms: _19  and  _22
REMARK   10  A    between atoms: _22  and  _23
REMARK   11  A    between atoms: _28  and  _29
REMARK   12  A    between atoms: _31  and  _33
REMARK   13  A    between atoms: _33  and  _34
REMARK   14  A    between atoms: _38  and  _39
REMARK   15  A    between atoms: _44  and  _46
REMARK   16  A    between atoms: _46  and  _47
REMARK   17  A    between atoms: _46  and  _49
REMARK   18  A    between atoms: _49  and  _50
REMARK   19  A    between atoms: _50  and  _51
REMARK   20  A    between atoms: _53  and  _55
REMARK   21  A    between atoms: _55  and  _56
REMARK   22  A    between atoms: _55  and  _58
REMARK   23  A    between atoms: _58  and  _59
REMARK   24  A    between atoms: _64  and  _66
REMARK   25  A    between atoms: _66  and  _67
REMARK   26  A    between atoms: _66  and  _69
REMARK   27  A    between atoms: _69  and  _70
REMARK   28  A    between atoms: _70  and  ZN_632
REMARK   29  A    between atoms: _72  and  _73
REMARK   30  A    between atoms: _78  and  _80
REMARK   31  A    between atoms: _80  and  _81
REMARK   32  A    between atoms: _80  and  _83
REMARK   33  A    between atoms: _83  and  _84
REMARK   34  A    between atoms: _89  and  _91
REMARK   35  A    between atoms: _91  and  _92
REMARK   36  A    between atoms: _91  and  _94
REMARK   37  A    between atoms: _96  and  _98
REMARK   38  A    between atoms: _98  and  _99
REMARK   39  A    between atoms: _98  and  _101
REMARK   40  A    between atoms: _101  and  _102
REMARK   41  A    between atoms: _107  and  _109
REMARK   42  A    between atoms: _109  and  _110
REMARK   43  A    between atoms: _109  and  _112
REMARK   44  A    between atoms: _112  and  _113
REMARK   45  A    between atoms: _113  and  _114
REMARK   46  A    between atoms: _114  and  _115
REMARK   47  A    between atoms: _124  and  _126
REMARK   48  A    between atoms: _126  and  _127
REMARK   49  A    between atoms: _126  and  _129
REMARK   50  A    between atoms: _129  and  _130
REMARK   51  A    between atoms: _135  and  _137
REMARK   52  A    between atoms: _137  and  _138
REMARK   53  A    between atoms: _137  and  _140
REMARK   54  A    between atoms: _140  and  _141
REMARK   55  A    between atoms: _141  and  _142
REMARK   56  A    between atoms: _146  and  _147
REMARK   57  A    between atoms: _152  and  _154
REMARK   58  A    between atoms: _154  and  _155
REMARK   59  A    between atoms: _154  and  _157
REMARK   60  A    between atoms: _157  and  _158
REMARK   61  A    between atoms: _160  and  _162
REMARK   62  A    between atoms: _162  and  _163
REMARK   63  A    between atoms: _162  and  _165
REMARK   64  A    between atoms: _165  and  _166
REMARK   65  A    between atoms: _169  and  _171
REMARK   66  A    between atoms: _171  and  _172
REMARK   67  A    between atoms: _171  and  _174
REMARK   68  A    between atoms: _174  and  _175
REMARK   69  A    between atoms: _180  and  _182
REMARK   70  A    between atoms: _182  and  _183
REMARK   71  A    between atoms: _185  and  _187
REMARK   72  A    between atoms: _187  and  _188
REMARK   73  A    between atoms: _187  and  _190
REMARK   74  A    between atoms: _190  and  _191
REMARK   75  A    between atoms: _194  and  _196
REMARK   76  A    between atoms: _196  and  _197
REMARK   77  A    between atoms: _196  and  _199
REMARK   78  A    between atoms: _199  and  _200
REMARK   79  A    between atoms: _200  and  _201
REMARK   80  A    between atoms: _203  and  _205
REMARK   81  A    between atoms: _205  and  _206
REMARK   82  A    between atoms: _205  and  _208
REMARK   83  A    between atoms: _208  and  _209
REMARK   84  A    between atoms: _209  and  _210
REMARK   85  A    between atoms: _210  and  _211
REMARK   86  A    between atoms: _220  and  _222
REMARK   87  A    between atoms: _222  and  _223
REMARK   88  A    between atoms: _222  and  _225
REMARK   89  A    between atoms: _228  and  _230
REMARK   90  A    between atoms: _230  and  _231
REMARK   91  A    between atoms: _230  and  _233
REMARK   92  A    between atoms: _233  and  _234
REMARK   93  A    between atoms: _234  and  _235
REMARK   94  A    between atoms: _235  and  _236
REMARK   95  A    between atoms: _245  and  _247
REMARK   96  A    between atoms: _247  and  _248
REMARK   97  A    between atoms: _250  and  _252
REMARK   98  A    between atoms: _252  and  _253
REMARK   99  A    between atoms: _252  and  _255
REMARK  100  A    between atoms: _255  and  _256
REMARK  101  A    between atoms: _262  and  _264
REMARK  102  A    between atoms: _264  and  _265
REMARK  103  A    between atoms: _264  and  _267
REMARK  104  A    between atoms: _267  and  _268
REMARK  105  A    between atoms: _271  and  _273
REMARK  106  A    between atoms: _273  and  _274
REMARK  107  A    between atoms: _273  and  _276
REMARK  108  A    between atoms: _276  and  _277
REMARK  109  A    between atoms: _277  and  _278
REMARK  110  A    between atoms: _283  and  _285
REMARK  111  A    between atoms: _285  and  _286
REMARK  112  A    between atoms: _285  and  _288
REMARK  113  A    between atoms: _288  and  _289
REMARK  114  A    between atoms: _292  and  _294
REMARK  115  A    between atoms: _294  and  _295
REMARK  116  A    between atoms: _294  and  _297
REMARK  117  A    between atoms: _297  and  _298
REMARK  118  A    between atoms: _301  and  _303
REMARK  119  A    between atoms: _303  and  _304
REMARK  120  A    between atoms: _307  and  _309
REMARK  121  A    between atoms: _309  and  _310
REMARK  122  A    between atoms: _309  and  _312
REMARK  123  A    between atoms: _312  and  _313
REMARK  124  A    between atoms: _317  and  ZN_632
REMARK  125  A    between atoms: _318  and  _320
REMARK  126  A    between atoms: _320  and  _321
REMARK  127  A    between atoms: _320  and  _323
REMARK  128  A    between atoms: _323  and  _324
REMARK  129  A    between atoms: _327  and  _329
REMARK  130  A    between atoms: _329  and  _330
REMARK  131  A    between atoms: _329  and  _332
REMARK  132  A    between atoms: _332  and  _333
REMARK  133  A    between atoms: _335  and  _337
REMARK  134  A    between atoms: _337  and  _338
REMARK  135  A    between atoms: _337  and  _340
REMARK  136  A    between atoms: _340  and  _341
REMARK  137  A    between atoms: _341  and  _342
REMARK  138  A    between atoms: _345  and  _347
REMARK  139  A    between atoms: _347  and  _348
REMARK  140  A    between atoms: _350  and  _352
REMARK  141  A    between atoms: _352  and  _353
REMARK  142  A    between atoms: _356  and  _358
REMARK  143  A    between atoms: _358  and  _359
REMARK  144  A    between atoms: _358  and  _361
REMARK  145  A    between atoms: _361  and  _362
REMARK  146  A    between atoms: _368  and  _370
REMARK  147  A    between atoms: _370  and  _371
REMARK  148  A    between atoms: _370  and  _373
REMARK  149  A    between atoms: _373  and  _374
REMARK  150  A    between atoms: _379  and  _380
REMARK  151  A    between atoms: _382  and  _384
REMARK  152  A    between atoms: _384  and  _385
REMARK  153  A    between atoms: _384  and  _387
REMARK  154  A    between atoms: _387  and  _388
REMARK  155  A    between atoms: _388  and  _389
REMARK  156  A    between atoms: _389  and  _390
REMARK  157  A    between atoms: _390  and  _391
REMARK  158  A    between atoms: _395  and  _397
REMARK  159  A    between atoms: _397  and  _398
REMARK  160  A    between atoms: _397  and  _400
REMARK  161  A    between atoms: _400  and  _401
REMARK  162  A    between atoms: _404  and  _406
REMARK  163  A    between atoms: _406  and  _407
REMARK  164  A    between atoms: _406  and  _409
REMARK  165  A    between atoms: _409  and  _410
REMARK  166  A    between atoms: _410  and  _411
REMARK  167  A    between atoms: _414  and  _416
REMARK  168  A    between atoms: _416  and  _417
REMARK  169  A    between atoms: _416  and  _419
REMARK  170  A    between atoms: _419  and  _420
REMARK  171  A    between atoms: _430  and  _432
REMARK  172  A    between atoms: _432  and  _433
REMARK  173  A    between atoms: _432  and  _435
REMARK  174  A    between atoms: _435  and  _436
REMARK  175  A    between atoms: _436  and  _437
REMARK  176  A    between atoms: _442  and  _444
REMARK  177  A    between atoms: _444  and  _445
REMARK  178  A    between atoms: _444  and  _447
REMARK  179  A    between atoms: _449  and  _451
REMARK  180  A    between atoms: _451  and  _452
REMARK  181  A    between atoms: _454  and  _456
REMARK  182  A    between atoms: _456  and  _457
REMARK  183  A    between atoms: _456  and  _459
REMARK  184  A    between atoms: _459  and  _460
REMARK  185  A    between atoms: _463  and  _465
REMARK  186  A    between atoms: _465  and  _466
REMARK  187  A    between atoms: _465  and  _468
REMARK  188  A    between atoms: _471  and  _473
REMARK  189  A    between atoms: _473  and  _474
REMARK  190  A    between atoms: _473  and  _476
REMARK  191  A    between atoms: _476  and  _477
REMARK  192  A    between atoms: _477  and  _478
REMARK  193  A    between atoms: _483  and  _485
REMARK  194  A    between atoms: _485  and  _486
REMARK  195  A    between atoms: _485  and  _488
REMARK  196  A    between atoms: _488  and  _489
REMARK  197  A    between atoms: _492  and  _494
REMARK  198  A    between atoms: _494  and  _495
REMARK  199  A    between atoms: _494  and  _497
REMARK  200  A    between atoms: _497  and  _498
REMARK  201  A    between atoms: _501  and  _503
REMARK  202  A    between atoms: _503  and  _504
REMARK  203  A    between atoms: _503  and  _506
REMARK  204  A    between atoms: _506  and  _507
REMARK  205  A    between atoms: _507  and  _508
REMARK  206  A    between atoms: _510  and  _512
REMARK  207  A    between atoms: _512  and  _513
REMARK  208  A    between atoms: _512  and  _515
REMARK  209  A    between atoms: _515  and  _516
REMARK  210  A    between atoms: _519  and  _521
REMARK  211  A    between atoms: _521  and  _522
REMARK  212  A    between atoms: _521  and  _524
REMARK  213  A    between atoms: _524  and  _525
REMARK  214  A    between atoms: _526  and  ZN_632
REMARK  215  A    between atoms: _530  and  _532
REMARK  216  A    between atoms: _532  and  _533
REMARK  217  A    between atoms: _532  and  _535
REMARK  218  A    between atoms: _535  and  _536
REMARK  219  A    between atoms: _536  and  _537
REMARK  220  A    between atoms: _537  and  _538
REMARK  221  A    between atoms: _547  and  _549
REMARK  222  A    between atoms: _549  and  _550
REMARK  223  A    between atoms: _553  and  _555
REMARK  224  A    between atoms: _555  and  _556
REMARK  225  A    between atoms: _555  and  _558
REMARK  226  A    between atoms: _558  and  _559
REMARK  227  A    between atoms: _562  and  _564
REMARK  228  A    between atoms: _564  and  _565
REMARK  229  A    between atoms: _564  and  _567
REMARK  230  A    between atoms: _567  and  _568
REMARK  231  A    between atoms: _571  and  _573
REMARK  232  A    between atoms: _573  and  _574
REMARK  233  A    between atoms: _576  and  _578
REMARK  234  A    between atoms: _578  and  _579
REMARK  235  A    between atoms: _578  and  _581
REMARK  236  A    between atoms: _581  and  _582
REMARK  237  A    between atoms: _584  and  _586
REMARK  238  A    between atoms: _586  and  _587
REMARK  239  A    between atoms: _586  and  _589
REMARK  240  A    between atoms: _589  and  _590
REMARK  241  A    between atoms: _590  and  _591
REMARK  242  A    between atoms: _593  and  _595
REMARK  243  A    between atoms: _595  and  _596
REMARK  244  A    between atoms: _595  and  _598
REMARK  245  A    between atoms: _598  and  _599
REMARK  246  A    between atoms: _599  and  _600
REMARK  247  A    between atoms: _603  and  _605
REMARK  248  A    between atoms: _605  and  _606
REMARK  249  A    between atoms: _605  and  _608
REMARK  250  A    between atoms: _608  and  _609
REMARK  251  A    between atoms: _609  and  _610
REMARK  252  A    between atoms: _610  and  _611
REMARK  253  A    between atoms: _620  and  _622
REMARK  254  A    between atoms: _622  and  _623
REMARK  255  A    between atoms: _622  and  _625
REMARK  256  A    between atoms: _625  and  _626
REMARK                            x       y       z     vdW  Elec       q    Type
REMARK                         _______ _______ _______ _____ _____    ______ ____
ROOT
ATOM      1  O   HOH     1     -14.903 -42.275  15.672  0.00  0.00    +0.000 OA
ENDROOT
TORSDOF 0
