REMARK  Name = ../refined-set-2016/3lp4/3lp4_pocket.pdb
REMARK  132 active torsions:
REMARK  status: ('A' for Active; 'I' for Inactive)
REMARK    1  A    between atoms: _1  and  _3
REMARK    2  A    between atoms: _3  and  _4
REMARK    3  A    between atoms: _6  and  _8
REMARK    4  A    between atoms: _8  and  _9
REMARK    5  A    between atoms: _8  and  _11
REMARK    6  A    between atoms: _11  and  _12
REMARK    7  A    between atoms: _12  and  _13
REMARK    8  A    between atoms: _18  and  _20
REMARK    9  A    between atoms: _20  and  _21
REMARK   10  A    between atoms: _20  and  _23
REMARK   11  A    between atoms: _23  and  _24
REMARK   12  A    between atoms: _24  and  _25
REMARK   13  A    between atoms: _25  and  _26
REMARK   14  A    between atoms: _35  and  _37
REMARK   15  A    between atoms: _37  and  _38
REMARK   16  A    between atoms: _37  and  _40
REMARK   17  A    between atoms: _40  and  _41
REMARK   18  A    between atoms: _44  and  _46
REMARK   19  A    between atoms: _46  and  _47
REMARK   20  A    between atoms: _46  and  _49
REMARK   21  A    between atoms: _49  and  _50
REMARK   22  A    between atoms: _51  and  MN_357
REMARK   23  A    between atoms: _55  and  _57
REMARK   24  A    between atoms: _57  and  _58
REMARK   25  A    between atoms: _57  and  _60
REMARK   26  A    between atoms: _60  and  _61
REMARK   27  A    between atoms: _63  and  _65
REMARK   28  A    between atoms: _65  and  _66
REMARK   29  A    between atoms: _65  and  _68
REMARK   30  A    between atoms: _68  and  _69
REMARK   31  A    between atoms: _79  and  _81
REMARK   32  A    between atoms: _107  and  _110
REMARK   33  A    between atoms: _110  and  _111
REMARK   34  A    between atoms: _116  and  _117
REMARK   35  A    between atoms: _123  and  _125
REMARK   36  A    between atoms: _125  and  _126
REMARK   37  A    between atoms: _125  and  _128
REMARK   38  A    between atoms: _128  and  _129
REMARK   39  A    between atoms: _132  and  _134
REMARK   40  A    between atoms: _134  and  _135
REMARK   41  A    between atoms: _134  and  _137
REMARK   42  A    between atoms: _137  and  _138
REMARK   43  A    between atoms: _143  and  _145
REMARK   44  A    between atoms: _145  and  _146
REMARK   45  A    between atoms: _145  and  _148
REMARK   46  A    between atoms: _148  and  _149
REMARK   47  A    between atoms: _152  and  _154
REMARK   48  A    between atoms: _154  and  _155
REMARK   49  A    between atoms: _154  and  _157
REMARK   50  A    between atoms: _157  and  _158
REMARK   51  A    between atoms: _161  and  _163
REMARK   52  A    between atoms: _163  and  _164
REMARK   53  A    between atoms: _163  and  _166
REMARK   54  A    between atoms: _166  and  _167
REMARK   55  A    between atoms: _170  and  _172
REMARK   56  A    between atoms: _172  and  _173
REMARK   57  A    between atoms: _172  and  _175
REMARK   58  A    between atoms: _175  and  _176
REMARK   59  A    between atoms: _179  and  _181
REMARK   60  A    between atoms: _181  and  _182
REMARK   61  A    between atoms: _181  and  _184
REMARK   62  A    between atoms: _184  and  _185
REMARK   63  A    between atoms: _187  and  _189
REMARK   64  A    between atoms: _189  and  _190
REMARK   65  A    between atoms: _192  and  _194
REMARK   66  A    between atoms: _194  and  _195
REMARK   67  A    between atoms: _194  and  _197
REMARK   68  A    between atoms: _197  and  _198
REMARK   69  A    between atoms: _203  and  _205
REMARK   70  A    between atoms: _205  and  _206
REMARK   71  A    between atoms: _205  and  _208
REMARK   72  A    between atoms: _208  and  _209
REMARK   73  A    between atoms: _212  and  _214
REMARK   74  A    between atoms: _214  and  _215
REMARK   75  A    between atoms: _214  and  _217
REMARK   76  A    between atoms: _217  and  _218
REMARK   77  A    between atoms: _223  and  _225
REMARK   78  A    between atoms: _225  and  _226
REMARK   79  A    between atoms: _228  and  _230
REMARK   80  A    between atoms: _230  and  _231
REMARK   81  A    between atoms: _230  and  _233
REMARK   82  A    between atoms: _233  and  _234
REMARK   83  A    between atoms: _234  and  _235
REMARK   84  A    between atoms: _241  and  _242
REMARK   85  A    between atoms: _247  and  _249
REMARK   86  A    between atoms: _249  and  _250
REMARK   87  A    between atoms: _249  and  _252
REMARK   88  A    between atoms: _252  and  _253
REMARK   89  A    between atoms: _256  and  _258
REMARK   90  A    between atoms: _258  and  _259
REMARK   91  A    between atoms: _258  and  _261
REMARK   92  A    between atoms: _264  and  _266
REMARK   93  A    between atoms: _266  and  _267
REMARK   94  A    between atoms: _266  and  _269
REMARK   95  A    between atoms: _269  and  _270
REMARK   96  A    between atoms: _274  and  _275
REMARK   97  A    between atoms: _280  and  _282
REMARK   98  A    between atoms: _282  and  _283
REMARK   99  A    between atoms: _282  and  _285
REMARK  100  A    between atoms: _285  and  _286
REMARK  101  A    between atoms: _286  and  _287
REMARK  102  A    between atoms: _290  and  _292
REMARK  103  A    between atoms: _292  and  _293
REMARK  104  A    between atoms: _292  and  _295
REMARK  105  A    between atoms: _295  and  _296
REMARK  106  A    between atoms: _296  and  _298
REMARK  107  A    between atoms: _298  and  MN_357
REMARK  108  A    between atoms: _299  and  _301
REMARK  109  A    between atoms: _301  and  _302
REMARK  110  A    between atoms: _301  and  _304
REMARK  111  A    between atoms: _304  and  _305
REMARK  112  A    between atoms: _305  and  _306
REMARK  113  A    between atoms: _306  and  MN_356
REMARK  114  A    between atoms: _308  and  _310
REMARK  115  A    between atoms: _310  and  _311
REMARK  116  A    between atoms: _310  and  _313
REMARK  117  A    between atoms: _313  and  _314
REMARK  118  A    between atoms: _317  and  _319
REMARK  119  A    between atoms: _319  and  _320
REMARK  120  A    between atoms: _322  and  _324
REMARK  121  A    between atoms: _324  and  _325
REMARK  122  A    between atoms: _324  and  _327
REMARK  123  A    between atoms: _327  and  _328
REMARK  124  A    between atoms: _332  and  _333
REMARK  125  A    between atoms: _338  and  _340
REMARK  126  A    between atoms: _340  and  _341
REMARK  127  A    between atoms: _340  and  _343
REMARK  128  A    between atoms: _346  and  _348
REMARK  129  A    between atoms: _348  and  _349
REMARK  130  A    between atoms: _348  and  _351
REMARK  131  A    between atoms: _351  and  _352
REMARK  132  A    between atoms: _352  and  _353
REMARK                            x       y       z     vdW  Elec       q    Type
REMARK                         _______ _______ _______ _____ _____    ______ ____
ROOT
ATOM      1  CA  GLN A   2      19.641 -38.436  12.198  0.00  0.00    +0.137 C 
ENDROOT
BRANCH   1   3
ATOM      2  C   GLY A   1      17.986 -38.091  10.411  0.00  0.00    +0.240 C 
ATOM      3  N   GLN A   2      18.443 -37.811  11.631  0.00  0.00    -0.298 N 
ATOM      4  H   GLN A   2      17.926 -37.117  12.207  0.00  0.00    +0.150 HD
ATOM      5  O   GLY A   1      18.530 -38.890   9.657  0.00  0.00    -0.274 OA
BRANCH   2   6
ATOM      6  CA  GLY A   1      16.730 -37.352   9.987  0.00  0.00    +0.169 C 
BRANCH   6   7
ATOM      7  N   GLY A   1      16.237 -36.638  11.147  0.00  0.00    -0.236 NA
ATOM      8  H   GLY A   1      16.545 -35.661  11.323  0.00  0.00    +0.142 HD
ENDBRANCH   6   7
ENDBRANCH   2   6
ENDBRANCH   1   3
BRANCH   1   9
ATOM      9  C   GLN A   2      19.626 -38.462  13.745  0.00  0.00    +0.227 C 
ATOM     10  O   GLN A   2      18.736 -37.882  14.384  0.00  0.00    -0.286 OA
ENDBRANCH   1   9
BRANCH   1  11
ATOM     11  CB  GLN A   2      20.886 -37.720  11.669  0.00  0.00    +0.037 C 
BRANCH  11  12
ATOM     12  CG  GLN A   2      20.822 -36.195  11.707  0.00  0.00    +0.087 C 
BRANCH  12  13
ATOM     13  CD  GLN A   2      21.217 -35.628  13.057  0.00  0.00    +0.219 C 
ATOM     14  NE2 GLN A   2      20.295 -34.906  13.695  0.00  0.00    -0.329 N 
ATOM     15 HE21 GLN A   2      20.509 -34.495  14.626  0.00  0.00    +0.145 HD
ATOM     16 HE22 GLN A   2      19.362 -34.754  13.262  0.00  0.00    +0.145 HD
ATOM     17  OE1 GLN A   2      22.337 -35.839  13.524  0.00  0.00    -0.275 OA
ENDBRANCH  12  13
ENDBRANCH  11  12
ENDBRANCH   1  11
TORSDOF 7
REMARK  Name = ../refined-set-2016/3lp4/3lp4_pocket.pdb
REMARK  132 active torsions:
REMARK  status: ('A' for Active; 'I' for Inactive)
REMARK    1  A    between atoms: _1  and  _3
REMARK    2  A    between atoms: _3  and  _4
REMARK    3  A    between atoms: _6  and  _8
REMARK    4  A    between atoms: _8  and  _9
REMARK    5  A    between atoms: _8  and  _11
REMARK    6  A    between atoms: _11  and  _12
REMARK    7  A    between atoms: _12  and  _13
REMARK    8  A    between atoms: _18  and  _20
REMARK    9  A    between atoms: _20  and  _21
REMARK   10  A    between atoms: _20  and  _23
REMARK   11  A    between atoms: _23  and  _24
REMARK   12  A    between atoms: _24  and  _25
REMARK   13  A    between atoms: _25  and  _26
REMARK   14  A    between atoms: _35  and  _37
REMARK   15  A    between atoms: _37  and  _38
REMARK   16  A    between atoms: _37  and  _40
REMARK   17  A    between atoms: _40  and  _41
REMARK   18  A    between atoms: _44  and  _46
REMARK   19  A    between atoms: _46  and  _47
REMARK   20  A    between atoms: _46  and  _49
REMARK   21  A    between atoms: _49  and  _50
REMARK   22  A    between atoms: _51  and  MN_357
REMARK   23  A    between atoms: _55  and  _57
REMARK   24  A    between atoms: _57  and  _58
REMARK   25  A    between atoms: _57  and  _60
REMARK   26  A    between atoms: _60  and  _61
REMARK   27  A    between atoms: _63  and  _65
REMARK   28  A    between atoms: _65  and  _66
REMARK   29  A    between atoms: _65  and  _68
REMARK   30  A    between atoms: _68  and  _69
REMARK   31  A    between atoms: _79  and  _81
REMARK   32  A    between atoms: _107  and  _110
REMARK   33  A    between atoms: _110  and  _111
REMARK   34  A    between atoms: _116  and  _117
REMARK   35  A    between atoms: _123  and  _125
REMARK   36  A    between atoms: _125  and  _126
REMARK   37  A    between atoms: _125  and  _128
REMARK   38  A    between atoms: _128  and  _129
REMARK   39  A    between atoms: _132  and  _134
REMARK   40  A    between atoms: _134  and  _135
REMARK   41  A    between atoms: _134  and  _137
REMARK   42  A    between atoms: _137  and  _138
REMARK   43  A    between atoms: _143  and  _145
REMARK   44  A    between atoms: _145  and  _146
REMARK   45  A    between atoms: _145  and  _148
REMARK   46  A    between atoms: _148  and  _149
REMARK   47  A    between atoms: _152  and  _154
REMARK   48  A    between atoms: _154  and  _155
REMARK   49  A    between atoms: _154  and  _157
REMARK   50  A    between atoms: _157  and  _158
REMARK   51  A    between atoms: _161  and  _163
REMARK   52  A    between atoms: _163  and  _164
REMARK   53  A    between atoms: _163  and  _166
REMARK   54  A    between atoms: _166  and  _167
REMARK   55  A    between atoms: _170  and  _172
REMARK   56  A    between atoms: _172  and  _173
REMARK   57  A    between atoms: _172  and  _175
REMARK   58  A    between atoms: _175  and  _176
REMARK   59  A    between atoms: _179  and  _181
REMARK   60  A    between atoms: _181  and  _182
REMARK   61  A    between atoms: _181  and  _184
REMARK   62  A    between atoms: _184  and  _185
REMARK   63  A    between atoms: _187  and  _189
REMARK   64  A    between atoms: _189  and  _190
REMARK   65  A    between atoms: _192  and  _194
REMARK   66  A    between atoms: _194  and  _195
REMARK   67  A    between atoms: _194  and  _197
REMARK   68  A    between atoms: _197  and  _198
REMARK   69  A    between atoms: _203  and  _205
REMARK   70  A    between atoms: _205  and  _206
REMARK   71  A    between atoms: _205  and  _208
REMARK   72  A    between atoms: _208  and  _209
REMARK   73  A    between atoms: _212  and  _214
REMARK   74  A    between atoms: _214  and  _215
REMARK   75  A    between atoms: _214  and  _217
REMARK   76  A    between atoms: _217  and  _218
REMARK   77  A    between atoms: _223  and  _225
REMARK   78  A    between atoms: _225  and  _226
REMARK   79  A    between atoms: _228  and  _230
REMARK   80  A    between atoms: _230  and  _231
REMARK   81  A    between atoms: _230  and  _233
REMARK   82  A    between atoms: _233  and  _234
REMARK   83  A    between atoms: _234  and  _235
REMARK   84  A    between atoms: _241  and  _242
REMARK   85  A    between atoms: _247  and  _249
REMARK   86  A    between atoms: _249  and  _250
REMARK   87  A    between atoms: _249  and  _252
REMARK   88  A    between atoms: _252  and  _253
REMARK   89  A    between atoms: _256  and  _258
REMARK   90  A    between atoms: _258  and  _259
REMARK   91  A    between atoms: _258  and  _261
REMARK   92  A    between atoms: _264  and  _266
REMARK   93  A    between atoms: _266  and  _267
REMARK   94  A    between atoms: _266  and  _269
REMARK   95  A    between atoms: _269  and  _270
REMARK   96  A    between atoms: _274  and  _275
REMARK   97  A    between atoms: _280  and  _282
REMARK   98  A    between atoms: _282  and  _283
REMARK   99  A    between atoms: _282  and  _285
REMARK  100  A    between atoms: _285  and  _286
REMARK  101  A    between atoms: _286  and  _287
REMARK  102  A    between atoms: _290  and  _292
REMARK  103  A    between atoms: _292  and  _293
REMARK  104  A    between atoms: _292  and  _295
REMARK  105  A    between atoms: _295  and  _296
REMARK  106  A    between atoms: _296  and  _298
REMARK  107  A    between atoms: _298  and  MN_357
REMARK  108  A    between atoms: _299  and  _301
REMARK  109  A    between atoms: _301  and  _302
REMARK  110  A    between atoms: _301  and  _304
REMARK  111  A    between atoms: _304  and  _305
REMARK  112  A    between atoms: _305  and  _306
REMARK  113  A    between atoms: _306  and  MN_356
REMARK  114  A    between atoms: _308  and  _310
REMARK  115  A    between atoms: _310  and  _311
REMARK  116  A    between atoms: _310  and  _313
REMARK  117  A    between atoms: _313  and  _314
REMARK  118  A    between atoms: _317  and  _319
REMARK  119  A    between atoms: _319  and  _320
REMARK  120  A    between atoms: _322  and  _324
REMARK  121  A    between atoms: _324  and  _325
REMARK  122  A    between atoms: _324  and  _327
REMARK  123  A    between atoms: _327  and  _328
REMARK  124  A    between atoms: _332  and  _333
REMARK  125  A    between atoms: _338  and  _340
REMARK  126  A    between atoms: _340  and  _341
REMARK  127  A    between atoms: _340  and  _343
REMARK  128  A    between atoms: _346  and  _348
REMARK  129  A    between atoms: _348  and  _349
REMARK  130  A    between atoms: _348  and  _351
REMARK  131  A    between atoms: _351  and  _352
REMARK  132  A    between atoms: _352  and  _353
REMARK                            x       y       z     vdW  Elec       q    Type
REMARK                         _______ _______ _______ _____ _____    ______ ____
ROOT
ATOM      1  NE  ARG A   1      25.714 -38.322  14.935  0.00  0.00    -0.265 N 
ATOM      2  HE  ARG A   1      25.741 -39.146  15.569  0.00  0.00    +0.259 HD
ATOM      3  CZ  ARG A   1      25.616 -38.547  13.624  0.00  0.00    +0.342 C 
ATOM      4  NH2 ARG A   1      25.550 -39.791  13.160  0.00  0.00    -0.292 N 
ATOM      5 HH21 ARG A   1      25.575 -40.594  13.820  0.00  0.00    +0.255 HD
ATOM      6 HH22 ARG A   1      25.474 -39.961  12.137  0.00  0.00    +0.255 HD
ATOM      7  NH1 ARG A   1      25.578 -37.526  12.773  0.00  0.00    -0.292 N 
ATOM      8 HH11 ARG A   1      25.625 -36.550  13.129  0.00  0.00    +0.255 HD
ATOM      9 HH12 ARG A   1      25.502 -37.703  11.751  0.00  0.00    +0.255 HD
ENDROOT
BRANCH   1  10
ATOM     10  CD  ARG A   1      25.786 -36.990  15.541  0.00  0.00    +0.174 C 
BRANCH  10  11
ATOM     11  CG  ARG A   1      24.964 -36.891  16.820  0.00  0.00    +0.045 C 
BRANCH  11  12
ATOM     12  CB  ARG A   1      23.956 -35.741  16.758  0.00  0.00    +0.029 C 
BRANCH  12  13
ATOM     13  CA  ARG A   1      22.539 -36.155  17.176  0.00  0.00    +0.133 C 
BRANCH  13  14
ATOM     14  N   ARG A   1      22.124 -37.319  16.381  0.00  0.00    -0.239 NA
ATOM     15  H   ARG A   1      22.675 -37.574  15.537  0.00  0.00    +0.142 HD
ENDBRANCH  13  14
BRANCH  13  16
ATOM     16  C   ARG A   1      21.562 -34.974  17.054  0.00  0.00    +0.224 C 
ATOM     17  O   ARG A   1      21.410 -34.373  15.989  0.00  0.00    -0.287 OA
ENDBRANCH  13  16
ENDBRANCH  12  13
ENDBRANCH  11  12
ENDBRANCH  10  11
ENDBRANCH   1  10
TORSDOF 6
REMARK  Name = ../refined-set-2016/3lp4/3lp4_pocket.pdb
REMARK  132 active torsions:
REMARK  status: ('A' for Active; 'I' for Inactive)
REMARK    1  A    between atoms: _1  and  _3
REMARK    2  A    between atoms: _3  and  _4
REMARK    3  A    between atoms: _6  and  _8
REMARK    4  A    between atoms: _8  and  _9
REMARK    5  A    between atoms: _8  and  _11
REMARK    6  A    between atoms: _11  and  _12
REMARK    7  A    between atoms: _12  and  _13
REMARK    8  A    between atoms: _18  and  _20
REMARK    9  A    between atoms: _20  and  _21
REMARK   10  A    between atoms: _20  and  _23
REMARK   11  A    between atoms: _23  and  _24
REMARK   12  A    between atoms: _24  and  _25
REMARK   13  A    between atoms: _25  and  _26
REMARK   14  A    between atoms: _35  and  _37
REMARK   15  A    between atoms: _37  and  _38
REMARK   16  A    between atoms: _37  and  _40
REMARK   17  A    between atoms: _40  and  _41
REMARK   18  A    between atoms: _44  and  _46
REMARK   19  A    between atoms: _46  and  _47
REMARK   20  A    between atoms: _46  and  _49
REMARK   21  A    between atoms: _49  and  _50
REMARK   22  A    between atoms: _51  and  MN_357
REMARK   23  A    between atoms: _55  and  _57
REMARK   24  A    between atoms: _57  and  _58
REMARK   25  A    between atoms: _57  and  _60
REMARK   26  A    between atoms: _60  and  _61
REMARK   27  A    between atoms: _63  and  _65
REMARK   28  A    between atoms: _65  and  _66
REMARK   29  A    between atoms: _65  and  _68
REMARK   30  A    between atoms: _68  and  _69
REMARK   31  A    between atoms: _79  and  _81
REMARK   32  A    between atoms: _107  and  _110
REMARK   33  A    between atoms: _110  and  _111
REMARK   34  A    between atoms: _116  and  _117
REMARK   35  A    between atoms: _123  and  _125
REMARK   36  A    between atoms: _125  and  _126
REMARK   37  A    between atoms: _125  and  _128
REMARK   38  A    between atoms: _128  and  _129
REMARK   39  A    between atoms: _132  and  _134
REMARK   40  A    between atoms: _134  and  _135
REMARK   41  A    between atoms: _134  and  _137
REMARK   42  A    between atoms: _137  and  _138
REMARK   43  A    between atoms: _143  and  _145
REMARK   44  A    between atoms: _145  and  _146
REMARK   45  A    between atoms: _145  and  _148
REMARK   46  A    between atoms: _148  and  _149
REMARK   47  A    between atoms: _152  and  _154
REMARK   48  A    between atoms: _154  and  _155
REMARK   49  A    between atoms: _154  and  _157
REMARK   50  A    between atoms: _157  and  _158
REMARK   51  A    between atoms: _161  and  _163
REMARK   52  A    between atoms: _163  and  _164
REMARK   53  A    between atoms: _163  and  _166
REMARK   54  A    between atoms: _166  and  _167
REMARK   55  A    between atoms: _170  and  _172
REMARK   56  A    between atoms: _172  and  _173
REMARK   57  A    between atoms: _172  and  _175
REMARK   58  A    between atoms: _175  and  _176
REMARK   59  A    between atoms: _179  and  _181
REMARK   60  A    between atoms: _181  and  _182
REMARK   61  A    between atoms: _181  and  _184
REMARK   62  A    between atoms: _184  and  _185
REMARK   63  A    between atoms: _187  and  _189
REMARK   64  A    between atoms: _189  and  _190
REMARK   65  A    between atoms: _192  and  _194
REMARK   66  A    between atoms: _194  and  _195
REMARK   67  A    between atoms: _194  and  _197
REMARK   68  A    between atoms: _197  and  _198
REMARK   69  A    between atoms: _203  and  _205
REMARK   70  A    between atoms: _205  and  _206
REMARK   71  A    between atoms: _205  and  _208
REMARK   72  A    between atoms: _208  and  _209
REMARK   73  A    between atoms: _212  and  _214
REMARK   74  A    between atoms: _214  and  _215
REMARK   75  A    between atoms: _214  and  _217
REMARK   76  A    between atoms: _217  and  _218
REMARK   77  A    between atoms: _223  and  _225
REMARK   78  A    between atoms: _225  and  _226
REMARK   79  A    between atoms: _228  and  _230
REMARK   80  A    between atoms: _230  and  _231
REMARK   81  A    between atoms: _230  and  _233
REMARK   82  A    between atoms: _233  and  _234
REMARK   83  A    between atoms: _234  and  _235
REMARK   84  A    between atoms: _241  and  _242
REMARK   85  A    between atoms: _247  and  _249
REMARK   86  A    between atoms: _249  and  _250
REMARK   87  A    between atoms: _249  and  _252
REMARK   88  A    between atoms: _252  and  _253
REMARK   89  A    between atoms: _256  and  _258
REMARK   90  A    between atoms: _258  and  _259
REMARK   91  A    between atoms: _258  and  _261
REMARK   92  A    between atoms: _264  and  _266
REMARK   93  A    between atoms: _266  and  _267
REMARK   94  A    between atoms: _266  and  _269
REMARK   95  A    between atoms: _269  and  _270
REMARK   96  A    between atoms: _274  and  _275
REMARK   97  A    between atoms: _280  and  _282
REMARK   98  A    between atoms: _282  and  _283
REMARK   99  A    between atoms: _282  and  _285
REMARK  100  A    between atoms: _285  and  _286
REMARK  101  A    between atoms: _286  and  _287
REMARK  102  A    between atoms: _290  and  _292
REMARK  103  A    between atoms: _292  and  _293
REMARK  104  A    between atoms: _292  and  _295
REMARK  105  A    between atoms: _295  and  _296
REMARK  106  A    between atoms: _296  and  _298
REMARK  107  A    between atoms: _298  and  MN_357
REMARK  108  A    between atoms: _299  and  _301
REMARK  109  A    between atoms: _301  and  _302
REMARK  110  A    between atoms: _301  and  _304
REMARK  111  A    between atoms: _304  and  _305
REMARK  112  A    between atoms: _305  and  _306
REMARK  113  A    between atoms: _306  and  MN_356
REMARK  114  A    between atoms: _308  and  _310
REMARK  115  A    between atoms: _310  and  _311
REMARK  116  A    between atoms: _310  and  _313
REMARK  117  A    between atoms: _313  and  _314
REMARK  118  A    between atoms: _317  and  _319
REMARK  119  A    between atoms: _319  and  _320
REMARK  120  A    between atoms: _322  and  _324
REMARK  121  A    between atoms: _324  and  _325
REMARK  122  A    between atoms: _324  and  _327
REMARK  123  A    between atoms: _327  and  _328
REMARK  124  A    between atoms: _332  and  _333
REMARK  125  A    between atoms: _338  and  _340
REMARK  126  A    between atoms: _340  and  _341
REMARK  127  A    between atoms: _340  and  _343
REMARK  128  A    between atoms: _346  and  _348
REMARK  129  A    between atoms: _348  and  _349
REMARK  130  A    between atoms: _348  and  _351
REMARK  131  A    between atoms: _351  and  _352
REMARK  132  A    between atoms: _352  and  _353
REMARK                            x       y       z     vdW  Elec       q    Type
REMARK                         _______ _______ _______ _____ _____    ______ ____
ROOT
ATOM      1 MN   UNK A   2      24.307 -34.251   3.364  0.00  0.00    +0.000 Mn
ATOM      2  O   UNK A   2      24.806 -35.761   4.591  0.00  0.00    +0.000 OA
ATOM      3  O   UNK A   5      23.366 -35.785   2.127  0.00  0.00    +0.000 OA
ATOM      4  C   UNK A   5      23.384 -37.029   2.017  0.00  0.00    +0.000 C 
ATOM      5  O   UNK A   5      24.085 -37.784   2.730  0.00  0.00    +0.000 OA
ATOM      6  C   UNK A   5      22.482 -37.645   0.976  0.00  0.00    +0.000 C 
ATOM      7  C   UNK A   5      22.952 -39.026   0.529  0.00  0.00    +0.000 C 
ATOM      8  N   UNK A   5      24.277 -38.952  -0.087  0.00  0.00    +0.000 N 
ATOM      9  H   UNK A   5      25.100 -39.266   0.466  0.00  0.00    +0.000 HD
ATOM     10  C   THR A   4      24.477 -38.501  -1.325  0.00  0.00    +0.000 C 
ATOM     11  CA  THR A   4      25.917 -38.500  -1.823  0.00  0.00    +0.000 C 
ATOM     12  N   THR A   4      26.861 -38.619  -0.721  0.00  0.00    +0.000 N 
ATOM     13  C   UNK A   3      27.385 -37.546  -0.139  0.00  0.00    +0.000 C 
ATOM     14  C   UNK A   3      28.352 -37.809   1.009  0.00  0.00    +0.000 C 
ATOM     15  C   UNK A   3      27.570 -38.287   2.239  0.00  0.00    +0.000 C 
ATOM     16  C   UNK A   3      28.285 -38.048   3.531  0.00  0.00    +0.000 A 
ATOM     17  C   UNK A   3      29.132 -38.830   4.239  0.00  0.00    +0.000 A 
ATOM     18  N   UNK A   3      29.571 -38.087   5.307  0.00  0.00    +0.000 NA
ATOM     19  C   UNK A   3      29.010 -36.892   5.260  0.00  0.00    +0.000 A 
ATOM     20  N   UNK A   3      28.228 -36.843   4.198  0.00  0.00    +0.000 N 
ATOM     21 MN   UNK A   3      27.383 -35.054   4.414  0.00  0.00    +0.000 Mn
ATOM     22  O   UNK A   3      27.568 -34.491   2.565  0.00  0.00    +0.000 OA
ATOM     23  C   UNK A   3      26.736 -34.067   1.733  0.00  0.00    +0.000 C 
ATOM     24  C   UNK A   3      27.216 -33.521   0.403  0.00  0.00    +0.000 C 
ATOM     25  C   UNK A   3      28.499 -32.686   0.508  0.00  0.00    +0.000 C 
ATOM     26  C   UNK A   3      29.704 -33.622   0.498  0.00  0.00    +0.000 C 
ATOM     27  N   UNK A   2      29.956 -34.274   1.623  0.00  0.00    +0.000 N 
ATOM     28  H   UNK A   2      29.362 -34.099   2.459  0.00  0.00    +0.000 HD
ATOM     29  C   UNK A   2      31.050 -35.232   1.711  0.00  0.00    +0.000 C 
ATOM     30  C   UNK A   2      31.602 -35.290   3.139  0.00  0.00    +0.000 C 
ATOM     31  C   UNK A   2      30.435 -36.569   1.322  0.00  0.00    +0.000 C 
ATOM     32  O   UNK A   2      31.136 -37.524   0.999  0.00  0.00    +0.000 OA
ATOM     33  O   UNK A   3      30.393 -33.752  -0.508  0.00  0.00    +0.000 OA
ATOM     34  N   UNK A   3      29.106 -36.607   1.337  0.00  0.00    +0.000 N 
ATOM     35  H   UNK A   3      28.584 -35.744   1.593  0.00  0.00    +0.000 HD
ATOM     36  O   UNK A   3      27.127 -36.399  -0.497  0.00  0.00    +0.000 OA
ATOM     37  H   THR A   4      27.131 -39.564  -0.382  0.00  0.00    +0.000 HD
ATOM     38  O   THR A   4      23.574 -38.091  -2.049  0.00  0.00    +0.000 OA
ATOM     39  O   UNK A   2      25.501 -34.089   1.926  0.00  0.00    +0.000 OA
ENDROOT
BRANCH   1  41
ATOM     40  C   UNK A   2      21.476 -32.740   3.428  0.00  0.00    +0.000 A 
ATOM     41  N   UNK A   2      22.730 -32.853   2.866  0.00  0.00    +0.000 N 
ATOM     42  C   UNK A   2      22.804 -32.078   1.798  0.00  0.00    +0.000 A 
ATOM     43  N   UNK A   2      21.643 -31.468   1.645  0.00  0.00    +0.000 NA
ATOM     44  C   UNK A   2      20.795 -31.865   2.651  0.00  0.00    +0.000 A 
BRANCH  40  45
ATOM     45  C   UNK A   2      21.074 -33.483   4.664  0.00  0.00    +0.000 C 
BRANCH  45  46
ATOM     46  C   UNK A   2      19.814 -32.921   5.341  0.00  0.00    +0.000 C 
BRANCH  46  49
ATOM     47  C   UNK A   1      19.241 -32.121   7.591  0.00  0.00    +0.000 C 
ATOM     48  O   UNK A   1      18.251 -31.503   7.191  0.00  0.00    +0.000 OA
ATOM     49  N   UNK A   2      20.027 -32.836   6.786  0.00  0.00    +0.000 N 
ATOM     50  H   UNK A   2      20.826 -33.356   7.203  0.00  0.00    +0.000 HD
BRANCH  47  51
ATOM     51  C   UNK A   1      19.630 -32.087   9.073  0.00  0.00    +0.000 C 
BRANCH  51  52
ATOM     52  N   UNK A   1      18.881 -31.028   9.740  0.00  0.00    +0.000 NA
ATOM     53  H   UNK A   1      18.089 -31.280  10.365  0.00  0.00    +0.000 HD
ENDBRANCH  51  52
BRANCH  51  54
ATOM     54  C   UNK A   1      19.377 -33.442   9.755  0.00  0.00    +0.000 C 
BRANCH  54  55
ATOM     55  C   UNK A   1      17.962 -33.961   9.549  0.00  0.00    +0.000 C 
ATOM     56  O   UNK A   1      17.114 -33.764  10.458  0.00  0.00    +0.000 OA
ATOM     57  O   UNK A   1      17.706 -34.563   8.477  0.00  0.00    +0.000 OA
ENDBRANCH  54  55
ENDBRANCH  51  54
ENDBRANCH  47  51
ENDBRANCH  46  49
BRANCH  46  58
ATOM     58  C   UNK A   2      18.595 -33.679   4.824  0.00  0.00    +0.000 C 
ATOM     59  N   UNK A   3      17.817 -34.313   5.696  0.00  0.00    +0.000 N 
ATOM     60  H   UNK A   3      18.044 -34.301   6.711  0.00  0.00    +0.000 HD
ATOM     61  O   UNK A   2      18.359 -33.691   3.619  0.00  0.00    +0.000 OA
BRANCH  59  62
ATOM     62  C   UNK A   3      16.638 -35.027   5.208  0.00  0.00    +0.000 C 
BRANCH  62  63
ATOM     63  C   UNK A   3      15.655 -34.007   4.640  0.00  0.00    +0.000 C 
ATOM     64  O   UNK A   3      14.874 -34.317   3.746  0.00  0.00    +0.000 OA
ENDBRANCH  62  63
BRANCH  62  65
ATOM     65  C   UNK A   3      15.961 -35.842   6.323  0.00  0.00    +0.000 C 
BRANCH  65  66
ATOM     66  O   UNK A   3      15.412 -35.021   7.345  0.00  0.00    +0.000 OA
ATOM     67  H   UNK A   3      16.133 -34.482   7.757  0.00  0.00    +0.000 HD
ENDBRANCH  65  66
ENDBRANCH  62  65
ENDBRANCH  59  62
ENDBRANCH  46  58
ENDBRANCH  45  46
ENDBRANCH  40  45
ENDBRANCH   1  41
BRANCH   7  68
ATOM     68  C   UNK A   5      21.918 -39.601  -0.419  0.00  0.00    +0.000 C 
ATOM     69  O   UNK A   5      20.820 -39.059  -0.555  0.00  0.00    +0.000 OA
ATOM     70  N   ILE A   6      22.263 -40.712  -1.058  0.00  0.00    +0.000 N 
ATOM     71  H   ILE A   6      23.189 -41.143  -0.864  0.00  0.00    +0.000 HD
BRANCH  70  72
ATOM     72  CA  ILE A   6      21.373 -41.340  -2.024  0.00  0.00    +0.000 C 
BRANCH  72  73
ATOM     73  C   ILE A   6      21.000 -42.787  -1.666  0.00  0.00    +0.000 C 
ATOM     74  N   ASN A   7      21.183 -43.168  -0.405  0.00  0.00    +0.000 N 
ATOM     75  H   ASN A   7      21.594 -42.507   0.285  0.00  0.00    +0.000 HD
ATOM     76  O   ILE A   6      20.555 -43.555  -2.522  0.00  0.00    +0.000 OA
BRANCH  74  77
ATOM     77  CA  ASN A   7      20.807 -44.512   0.008  0.00  0.00    +0.000 C 
BRANCH  77  78
ATOM     78  C   ASN A   7      19.287 -44.631  -0.080  0.00  0.00    +0.000 C 
ATOM     79  O   ASN A   7      18.566 -43.636   0.061  0.00  0.00    +0.000 OA
ATOM     80  N   THR A   8      18.798 -45.842  -0.323  0.00  0.00    +0.000 N 
ATOM     81  H   THR A   8      19.448 -46.642  -0.457  0.00  0.00    +0.000 HD
BRANCH  80  82
ATOM     82  CA  THR A   8      17.361 -46.060  -0.404  0.00  0.00    +0.000 C 
BRANCH  82  83
ATOM     83  C   THR A   8      16.936 -46.665   0.922  0.00  0.00    +0.000 C 
ATOM     84  O   THR A   8      17.779 -47.100   1.709  0.00  0.00    +0.000 OA
ENDBRANCH  82  83
BRANCH  82  85
ATOM     85  CB  THR A   8      16.985 -47.066  -1.507  0.00  0.00    +0.000 C 
ATOM     86  CG2 THR A   8      17.646 -46.693  -2.831  0.00  0.00    +0.000 C 
BRANCH  85  87
ATOM     87  OG1 THR A   8      17.407 -48.374  -1.110  0.00  0.00    +0.000 OA
ATOM     88  HG1 THR A   8      17.168 -49.025  -1.816  0.00  0.00    +0.000 HD
ENDBRANCH  85  87
ENDBRANCH  82  85
ENDBRANCH  80  82
ENDBRANCH  77  78
BRANCH  77  89
ATOM     89  CB  ASN A   7      21.247 -44.795   1.448  0.00  0.00    +0.000 C 
BRANCH  89  90
ATOM     90  CG  ASN A   7      22.607 -45.448   1.524  0.00  0.00    +0.000 C 
ATOM     91  ND2 ASN A   7      23.476 -44.898   2.352  0.00  0.00    +0.000 N 
ATOM     92 HD21 ASN A   7      23.210 -44.056   2.901  0.00  0.00    +0.000 HD
ATOM     93 HD22 ASN A   7      24.427 -45.307   2.455  0.00  0.00    +0.000 HD
ATOM     94  OD1 ASN A   7      22.871 -46.445   0.851  0.00  0.00    +0.000 OA
ENDBRANCH  89  90
ENDBRANCH  77  89
ENDBRANCH  74  77
ENDBRANCH  72  73
BRANCH  72  95
ATOM     95  CB  ILE A   6      22.014 -41.280  -3.440  0.00  0.00    +0.000 C 
ATOM     96  CG2 ILE A   6      23.173 -42.275  -3.542  0.00  0.00    +0.000 C 
BRANCH  95  97
ATOM     97  CG1 ILE A   6      20.967 -41.555  -4.515  0.00  0.00    +0.000 C 
ATOM     98  CD1 ILE A   6      21.454 -41.214  -5.928  0.00  0.00    +0.000 C 
ENDBRANCH  95  97
ENDBRANCH  72  95
ENDBRANCH  70  72
ENDBRANCH   7  68
BRANCH  25  99
ATOM     99  N   UNK A   3      28.566 -31.821  -0.664  0.00  0.00    +0.000 NA
ATOM    100  H   UNK A   1      29.254 -32.036  -1.414  0.00  0.00    +0.000 HD
ENDBRANCH  25  99
BRANCH  11 101
ATOM    101  CB  THR A   4      26.091 -39.650  -2.859  0.00  0.00    +0.000 C 
ATOM    102  CG2 THR A   4      27.350 -39.446  -3.677  0.00  0.00    +0.000 C 
BRANCH 101 103
ATOM    103  OG1 THR A   4      26.160 -40.912  -2.184  0.00  0.00    +0.000 OA
ATOM    104  HG1 THR A   4      25.325 -41.057  -1.673  0.00  0.00    +0.000 HD
ENDBRANCH 101 103
ENDBRANCH  11 101
BRANCH  21 105
ATOM    105  O   UNK A   3      28.186 -34.270   6.297  0.00  0.00    +0.000 OA
BRANCH 105 106
ATOM    106  C   UNK A   3      28.965 -33.411   5.824  0.00  0.00    +0.000 C 
ATOM    107  O   UNK A   3      29.145 -33.275   4.591  0.00  0.00    +0.000 OA
BRANCH 106 108
ATOM    108  C   UNK A   3      29.721 -32.543   6.826  0.00  0.00    +0.000 C 
BRANCH 108 109
ATOM    109  C   UNK A   3      30.291 -31.243   6.222  0.00  0.00    +0.000 C 
BRANCH 109 110
ATOM    110  N   UNK A   3      29.251 -30.236   6.058  0.00  0.00    +0.000 NA
ATOM    111  H   UNK A   1      28.249 -30.515   6.051  0.00  0.00    +0.000 HD
ENDBRANCH 109 110
BRANCH 109 112
ATOM    112  C   UNK A   3      30.978 -31.490   4.883  0.00  0.00    +0.000 C 
ATOM    113  O   UNK A   1      31.862 -32.340   4.768  0.00  0.00    +0.000 OA
ENDBRANCH 109 112
ENDBRANCH 108 109
ENDBRANCH 106 108
ENDBRANCH 105 106
ENDBRANCH  21 105
BRANCH   1 114
ATOM    114  O   UNK A   2      25.779 -33.083   4.581  0.00  0.00    +0.000 OA
BRANCH 114 115
ATOM    115  C   UNK A   2      26.134 -31.878   4.587  0.00  0.00    +0.000 C 
ATOM    116  O   UNK A   2      26.599 -31.310   5.605  0.00  0.00    +0.000 OA
BRANCH 115 117
ATOM    117  C   UNK A   2      26.012 -31.095   3.286  0.00  0.00    +0.000 C 
BRANCH 117 118
ATOM    118  C   UNK A   2      25.868 -29.590   3.506  0.00  0.00    +0.000 C 
BRANCH 118 119
ATOM    119  N   UNK A   2      25.720 -28.898   2.229  0.00  0.00    +0.000 NA
ATOM    120  H   UNK A   1      26.161 -29.305   1.380  0.00  0.00    +0.000 HD
ENDBRANCH 118 119
BRANCH 118 121
ATOM    121  C   UNK A   2      27.186 -29.020   4.001  0.00  0.00    +0.000 C 
ATOM    122  O   UNK A   1      28.169 -29.019   3.259  0.00  0.00    +0.000 OA
ENDBRANCH 118 121
ENDBRANCH 117 118
ENDBRANCH 115 117
ENDBRANCH 114 115
ENDBRANCH   1 114
TORSDOF 41
REMARK  Name = ../refined-set-2016/3lp4/3lp4_pocket.pdb
REMARK  132 active torsions:
REMARK  status: ('A' for Active; 'I' for Inactive)
REMARK    1  A    between atoms: _1  and  _3
REMARK    2  A    between atoms: _3  and  _4
REMARK    3  A    between atoms: _6  and  _8
REMARK    4  A    between atoms: _8  and  _9
REMARK    5  A    between atoms: _8  and  _11
REMARK    6  A    between atoms: _11  and  _12
REMARK    7  A    between atoms: _12  and  _13
REMARK    8  A    between atoms: _18  and  _20
REMARK    9  A    between atoms: _20  and  _21
REMARK   10  A    between atoms: _20  and  _23
REMARK   11  A    between atoms: _23  and  _24
REMARK   12  A    between atoms: _24  and  _25
REMARK   13  A    between atoms: _25  and  _26
REMARK   14  A    between atoms: _35  and  _37
REMARK   15  A    between atoms: _37  and  _38
REMARK   16  A    between atoms: _37  and  _40
REMARK   17  A    between atoms: _40  and  _41
REMARK   18  A    between atoms: _44  and  _46
REMARK   19  A    between atoms: _46  and  _47
REMARK   20  A    between atoms: _46  and  _49
REMARK   21  A    between atoms: _49  and  _50
REMARK   22  A    between atoms: _51  and  MN_357
REMARK   23  A    between atoms: _55  and  _57
REMARK   24  A    between atoms: _57  and  _58
REMARK   25  A    between atoms: _57  and  _60
REMARK   26  A    between atoms: _60  and  _61
REMARK   27  A    between atoms: _63  and  _65
REMARK   28  A    between atoms: _65  and  _66
REMARK   29  A    between atoms: _65  and  _68
REMARK   30  A    between atoms: _68  and  _69
REMARK   31  A    between atoms: _79  and  _81
REMARK   32  A    between atoms: _107  and  _110
REMARK   33  A    between atoms: _110  and  _111
REMARK   34  A    between atoms: _116  and  _117
REMARK   35  A    between atoms: _123  and  _125
REMARK   36  A    between atoms: _125  and  _126
REMARK   37  A    between atoms: _125  and  _128
REMARK   38  A    between atoms: _128  and  _129
REMARK   39  A    between atoms: _132  and  _134
REMARK   40  A    between atoms: _134  and  _135
REMARK   41  A    between atoms: _134  and  _137
REMARK   42  A    between atoms: _137  and  _138
REMARK   43  A    between atoms: _143  and  _145
REMARK   44  A    between atoms: _145  and  _146
REMARK   45  A    between atoms: _145  and  _148
REMARK   46  A    between atoms: _148  and  _149
REMARK   47  A    between atoms: _152  and  _154
REMARK   48  A    between atoms: _154  and  _155
REMARK   49  A    between atoms: _154  and  _157
REMARK   50  A    between atoms: _157  and  _158
REMARK   51  A    between atoms: _161  and  _163
REMARK   52  A    between atoms: _163  and  _164
REMARK   53  A    between atoms: _163  and  _166
REMARK   54  A    between atoms: _166  and  _167
REMARK   55  A    between atoms: _170  and  _172
REMARK   56  A    between atoms: _172  and  _173
REMARK   57  A    between atoms: _172  and  _175
REMARK   58  A    between atoms: _175  and  _176
REMARK   59  A    between atoms: _179  and  _181
REMARK   60  A    between atoms: _181  and  _182
REMARK   61  A    between atoms: _181  and  _184
REMARK   62  A    between atoms: _184  and  _185
REMARK   63  A    between atoms: _187  and  _189
REMARK   64  A    between atoms: _189  and  _190
REMARK   65  A    between atoms: _192  and  _194
REMARK   66  A    between atoms: _194  and  _195
REMARK   67  A    between atoms: _194  and  _197
REMARK   68  A    between atoms: _197  and  _198
REMARK   69  A    between atoms: _203  and  _205
REMARK   70  A    between atoms: _205  and  _206
REMARK   71  A    between atoms: _205  and  _208
REMARK   72  A    between atoms: _208  and  _209
REMARK   73  A    between atoms: _212  and  _214
REMARK   74  A    between atoms: _214  and  _215
REMARK   75  A    between atoms: _214  and  _217
REMARK   76  A    between atoms: _217  and  _218
REMARK   77  A    between atoms: _223  and  _225
REMARK   78  A    between atoms: _225  and  _226
REMARK   79  A    between atoms: _228  and  _230
REMARK   80  A    between atoms: _230  and  _231
REMARK   81  A    between atoms: _230  and  _233
REMARK   82  A    between atoms: _233  and  _234
REMARK   83  A    between atoms: _234  and  _235
REMARK   84  A    between atoms: _241  and  _242
REMARK   85  A    between atoms: _247  and  _249
REMARK   86  A    between atoms: _249  and  _250
REMARK   87  A    between atoms: _249  and  _252
REMARK   88  A    between atoms: _252  and  _253
REMARK   89  A    between atoms: _256  and  _258
REMARK   90  A    between atoms: _258  and  _259
REMARK   91  A    between atoms: _258  and  _261
REMARK   92  A    between atoms: _264  and  _266
REMARK   93  A    between atoms: _266  and  _267
REMARK   94  A    between atoms: _266  and  _269
REMARK   95  A    between atoms: _269  and  _270
REMARK   96  A    between atoms: _274  and  _275
REMARK   97  A    between atoms: _280  and  _282
REMARK   98  A    between atoms: _282  and  _283
REMARK   99  A    between atoms: _282  and  _285
REMARK  100  A    between atoms: _285  and  _286
REMARK  101  A    between atoms: _286  and  _287
REMARK  102  A    between atoms: _290  and  _292
REMARK  103  A    between atoms: _292  and  _293
REMARK  104  A    between atoms: _292  and  _295
REMARK  105  A    between atoms: _295  and  _296
REMARK  106  A    between atoms: _296  and  _298
REMARK  107  A    between atoms: _298  and  MN_357
REMARK  108  A    between atoms: _299  and  _301
REMARK  109  A    between atoms: _301  and  _302
REMARK  110  A    between atoms: _301  and  _304
REMARK  111  A    between atoms: _304  and  _305
REMARK  112  A    between atoms: _305  and  _306
REMARK  113  A    between atoms: _306  and  MN_356
REMARK  114  A    between atoms: _308  and  _310
REMARK  115  A    between atoms: _310  and  _311
REMARK  116  A    between atoms: _310  and  _313
REMARK  117  A    between atoms: _313  and  _314
REMARK  118  A    between atoms: _317  and  _319
REMARK  119  A    between atoms: _319  and  _320
REMARK  120  A    between atoms: _322  and  _324
REMARK  121  A    between atoms: _324  and  _325
REMARK  122  A    between atoms: _324  and  _327
REMARK  123  A    between atoms: _327  and  _328
REMARK  124  A    between atoms: _332  and  _333
REMARK  125  A    between atoms: _338  and  _340
REMARK  126  A    between atoms: _340  and  _341
REMARK  127  A    between atoms: _340  and  _343
REMARK  128  A    between atoms: _346  and  _348
REMARK  129  A    between atoms: _348  and  _349
REMARK  130  A    between atoms: _348  and  _351
REMARK  131  A    between atoms: _351  and  _352
REMARK  132  A    between atoms: _352  and  _353
REMARK                            x       y       z     vdW  Elec       q    Type
REMARK                         _______ _______ _______ _____ _____    ______ ____
ROOT
ATOM      1  CG  TRP A   1      23.904 -33.050  -2.903  0.00  0.00    -0.002 A 
ATOM      2  CD1 TRP A   1      24.807 -33.539  -2.005  0.00  0.00    +0.068 A 
ATOM      3  NE1 TRP A   1      24.154 -34.090  -0.925  0.00  0.00    -0.352 N 
ATOM      4  HE1 TRP A   1      24.613 -34.531  -0.102  0.00  0.00    +0.166 HD
ATOM      5  CE2 TRP A   1      22.802 -33.964  -1.109  0.00  0.00    +0.056 A 
ATOM      6  CZ2 TRP A   1      21.736 -34.366  -0.288  0.00  0.00    +0.017 A 
ATOM      7  CH2 TRP A   1      20.461 -34.106  -0.724  0.00  0.00    +0.001 A 
ATOM      8  CZ3 TRP A   1      20.225 -33.460  -1.950  0.00  0.00    +0.000 A 
ATOM      9  CE3 TRP A   1      21.292 -33.058  -2.772  0.00  0.00    +0.001 A 
ATOM     10  CD2 TRP A   1      22.604 -33.313  -2.346  0.00  0.00    +0.013 A 
ENDROOT
BRANCH   1  11
ATOM     11  CB  TRP A   1      24.202 -32.386  -4.228  0.00  0.00    +0.053 C 
BRANCH  11  12
ATOM     12  CA  TRP A   1      24.813 -30.968  -4.180  0.00  0.00    +0.137 C 
BRANCH  12  13
ATOM     13  N   TRP A   1      24.725 -30.395  -5.524  0.00  0.00    -0.239 NA
ATOM     14  H   TRP A   1      25.117 -30.941  -6.318  0.00  0.00    +0.142 HD
ENDBRANCH  12  13
BRANCH  12  15
ATOM     15  C   TRP A   1      26.239 -31.019  -3.619  0.00  0.00    +0.224 C 
ATOM     16  O   TRP A   1      27.015 -31.916  -3.967  0.00  0.00    -0.287 OA
ENDBRANCH  12  15
ENDBRANCH  11  12
ENDBRANCH   1  11
TORSDOF 4
REMARK  Name = ../refined-set-2016/3lp4/3lp4_pocket.pdb
REMARK  132 active torsions:
REMARK  status: ('A' for Active; 'I' for Inactive)
REMARK    1  A    between atoms: _1  and  _3
REMARK    2  A    between atoms: _3  and  _4
REMARK    3  A    between atoms: _6  and  _8
REMARK    4  A    between atoms: _8  and  _9
REMARK    5  A    between atoms: _8  and  _11
REMARK    6  A    between atoms: _11  and  _12
REMARK    7  A    between atoms: _12  and  _13
REMARK    8  A    between atoms: _18  and  _20
REMARK    9  A    between atoms: _20  and  _21
REMARK   10  A    between atoms: _20  and  _23
REMARK   11  A    between atoms: _23  and  _24
REMARK   12  A    between atoms: _24  and  _25
REMARK   13  A    between atoms: _25  and  _26
REMARK   14  A    between atoms: _35  and  _37
REMARK   15  A    between atoms: _37  and  _38
REMARK   16  A    between atoms: _37  and  _40
REMARK   17  A    between atoms: _40  and  _41
REMARK   18  A    between atoms: _44  and  _46
REMARK   19  A    between atoms: _46  and  _47
REMARK   20  A    between atoms: _46  and  _49
REMARK   21  A    between atoms: _49  and  _50
REMARK   22  A    between atoms: _51  and  MN_357
REMARK   23  A    between atoms: _55  and  _57
REMARK   24  A    between atoms: _57  and  _58
REMARK   25  A    between atoms: _57  and  _60
REMARK   26  A    between atoms: _60  and  _61
REMARK   27  A    between atoms: _63  and  _65
REMARK   28  A    between atoms: _65  and  _66
REMARK   29  A    between atoms: _65  and  _68
REMARK   30  A    between atoms: _68  and  _69
REMARK   31  A    between atoms: _79  and  _81
REMARK   32  A    between atoms: _107  and  _110
REMARK   33  A    between atoms: _110  and  _111
REMARK   34  A    between atoms: _116  and  _117
REMARK   35  A    between atoms: _123  and  _125
REMARK   36  A    between atoms: _125  and  _126
REMARK   37  A    between atoms: _125  and  _128
REMARK   38  A    between atoms: _128  and  _129
REMARK   39  A    between atoms: _132  and  _134
REMARK   40  A    between atoms: _134  and  _135
REMARK   41  A    between atoms: _134  and  _137
REMARK   42  A    between atoms: _137  and  _138
REMARK   43  A    between atoms: _143  and  _145
REMARK   44  A    between atoms: _145  and  _146
REMARK   45  A    between atoms: _145  and  _148
REMARK   46  A    between atoms: _148  and  _149
REMARK   47  A    between atoms: _152  and  _154
REMARK   48  A    between atoms: _154  and  _155
REMARK   49  A    between atoms: _154  and  _157
REMARK   50  A    between atoms: _157  and  _158
REMARK   51  A    between atoms: _161  and  _163
REMARK   52  A    between atoms: _163  and  _164
REMARK   53  A    between atoms: _163  and  _166
REMARK   54  A    between atoms: _166  and  _167
REMARK   55  A    between atoms: _170  and  _172
REMARK   56  A    between atoms: _172  and  _173
REMARK   57  A    between atoms: _172  and  _175
REMARK   58  A    between atoms: _175  and  _176
REMARK   59  A    between atoms: _179  and  _181
REMARK   60  A    between atoms: _181  and  _182
REMARK   61  A    between atoms: _181  and  _184
REMARK   62  A    between atoms: _184  and  _185
REMARK   63  A    between atoms: _187  and  _189
REMARK   64  A    between atoms: _189  and  _190
REMARK   65  A    between atoms: _192  and  _194
REMARK   66  A    between atoms: _194  and  _195
REMARK   67  A    between atoms: _194  and  _197
REMARK   68  A    between atoms: _197  and  _198
REMARK   69  A    between atoms: _203  and  _205
REMARK   70  A    between atoms: _205  and  _206
REMARK   71  A    between atoms: _205  and  _208
REMARK   72  A    between atoms: _208  and  _209
REMARK   73  A    between atoms: _212  and  _214
REMARK   74  A    between atoms: _214  and  _215
REMARK   75  A    between atoms: _214  and  _217
REMARK   76  A    between atoms: _217  and  _218
REMARK   77  A    between atoms: _223  and  _225
REMARK   78  A    between atoms: _225  and  _226
REMARK   79  A    between atoms: _228  and  _230
REMARK   80  A    between atoms: _230  and  _231
REMARK   81  A    between atoms: _230  and  _233
REMARK   82  A    between atoms: _233  and  _234
REMARK   83  A    between atoms: _234  and  _235
REMARK   84  A    between atoms: _241  and  _242
REMARK   85  A    between atoms: _247  and  _249
REMARK   86  A    between atoms: _249  and  _250
REMARK   87  A    between atoms: _249  and  _252
REMARK   88  A    between atoms: _252  and  _253
REMARK   89  A    between atoms: _256  and  _258
REMARK   90  A    between atoms: _258  and  _259
REMARK   91  A    between atoms: _258  and  _261
REMARK   92  A    between atoms: _264  and  _266
REMARK   93  A    between atoms: _266  and  _267
REMARK   94  A    between atoms: _266  and  _269
REMARK   95  A    between atoms: _269  and  _270
REMARK   96  A    between atoms: _274  and  _275
REMARK   97  A    between atoms: _280  and  _282
REMARK   98  A    between atoms: _282  and  _283
REMARK   99  A    between atoms: _282  and  _285
REMARK  100  A    between atoms: _285  and  _286
REMARK  101  A    between atoms: _286  and  _287
REMARK  102  A    between atoms: _290  and  _292
REMARK  103  A    between atoms: _292  and  _293
REMARK  104  A    between atoms: _292  and  _295
REMARK  105  A    between atoms: _295  and  _296
REMARK  106  A    between atoms: _296  and  _298
REMARK  107  A    between atoms: _298  and  MN_357
REMARK  108  A    between atoms: _299  and  _301
REMARK  109  A    between atoms: _301  and  _302
REMARK  110  A    between atoms: _301  and  _304
REMARK  111  A    between atoms: _304  and  _305
REMARK  112  A    between atoms: _305  and  _306
REMARK  113  A    between atoms: _306  and  MN_356
REMARK  114  A    between atoms: _308  and  _310
REMARK  115  A    between atoms: _310  and  _311
REMARK  116  A    between atoms: _310  and  _313
REMARK  117  A    between atoms: _313  and  _314
REMARK  118  A    between atoms: _317  and  _319
REMARK  119  A    between atoms: _319  and  _320
REMARK  120  A    between atoms: _322  and  _324
REMARK  121  A    between atoms: _324  and  _325
REMARK  122  A    between atoms: _324  and  _327
REMARK  123  A    between atoms: _327  and  _328
REMARK  124  A    between atoms: _332  and  _333
REMARK  125  A    between atoms: _338  and  _340
REMARK  126  A    between atoms: _340  and  _341
REMARK  127  A    between atoms: _340  and  _343
REMARK  128  A    between atoms: _346  and  _348
REMARK  129  A    between atoms: _348  and  _349
REMARK  130  A    between atoms: _348  and  _351
REMARK  131  A    between atoms: _351  and  _352
REMARK  132  A    between atoms: _352  and  _353
REMARK                            x       y       z     vdW  Elec       q    Type
REMARK                         _______ _______ _______ _____ _____    ______ ____
ROOT
ATOM      1  CA  ASN A   6      19.157 -42.314   9.147  0.00  0.00    +0.158 C 
ENDROOT
BRANCH   1   4
ATOM      2  C   GLY A   5      18.254 -44.568   9.023  0.00  0.00    +0.243 C 
ATOM      3  O   GLY A   5      17.105 -44.165   9.186  0.00  0.00    -0.273 OA
ATOM      4  N   ASN A   6      19.304 -43.752   8.988  0.00  0.00    -0.297 N 
ATOM      5  H   ASN A   6      20.253 -44.152   8.843  0.00  0.00    +0.150 HD
BRANCH   2   6
ATOM      6  CA  GLY A   5      18.540 -46.050   8.851  0.00  0.00    +0.176 C 
BRANCH   6   9
ATOM      7  C   SER A   4      20.801 -46.450   9.613  0.00  0.00    +0.243 C 
ATOM      8  O   SER A   4      20.457 -46.363  10.796  0.00  0.00    -0.273 OA
ATOM      9  N   GLY A   5      19.946 -46.321   8.601  0.00  0.00    -0.295 N 
ATOM     10  H   GLY A   5      20.287 -46.415   7.623  0.00  0.00    +0.150 HD
BRANCH   7  11
ATOM     11  CA  SER A   4      22.265 -46.722   9.247  0.00  0.00    +0.178 C 
BRANCH  11  14
ATOM     12  C   THR A   3      22.381 -48.852   8.073  0.00  0.00    +0.243 C 
ATOM     13  O   THR A   3      22.165 -49.485   9.108  0.00  0.00    -0.273 OA
ATOM     14  N   SER A   4      22.426 -47.523   8.038  0.00  0.00    -0.295 N 
ATOM     15  H   SER A   4      22.579 -47.044   7.128  0.00  0.00    +0.150 HD
BRANCH  12  16
ATOM     16  CA  THR A   3      22.599 -49.577   6.742  0.00  0.00    +0.176 C 
BRANCH  16  18
ATOM     17  C   THR A   2      21.132 -48.839   4.953  0.00  0.00    +0.243 C 
ATOM     18  N   THR A   3      22.253 -48.674   5.647  0.00  0.00    -0.295 N 
ATOM     19  H   THR A   3      22.893 -47.891   5.407  0.00  0.00    +0.150 HD
ATOM     20  O   THR A   2      20.352 -49.769   5.159  0.00  0.00    -0.273 OA
BRANCH  17  21
ATOM     21  CA  THR A   2      20.851 -47.809   3.861  0.00  0.00    +0.176 C 
BRANCH  21  23
ATOM     22  C   THR A   1      20.931 -49.351   2.001  0.00  0.00    +0.241 C 
ATOM     23  N   THR A   2      20.258 -48.435   2.688  0.00  0.00    -0.295 N 
ATOM     24  H   THR A   2      19.301 -48.163   2.386  0.00  0.00    +0.150 HD
ATOM     25  O   THR A   1      22.061 -49.709   2.316  0.00  0.00    -0.274 OA
BRANCH  22  26
ATOM     26  CA  THR A   1      20.243 -49.951   0.780  0.00  0.00    +0.172 C 
BRANCH  26  27
ATOM     27  N   THR A   1      18.788 -49.803   0.827  0.00  0.00    -0.236 NA
ATOM     28  H   THR A   1      18.342 -48.914   0.523  0.00  0.00    +0.142 HD
ENDBRANCH  26  27
BRANCH  26  29
ATOM     29  CB  THR A   1      20.860 -49.283  -0.467  0.00  0.00    +0.135 C 
ATOM     30  CG2 THR A   1      20.287 -49.882  -1.742  0.00  0.00    +0.034 C 
BRANCH  29  31
ATOM     31  OG1 THR A   1      20.604 -47.873  -0.424  0.00  0.00    -0.383 OA
ATOM     32  HG1 THR A   1      21.010 -47.490   0.393  0.00  0.00    +0.210 HD
ENDBRANCH  29  31
ENDBRANCH  26  29
ENDBRANCH  22  26
ENDBRANCH  21  23
BRANCH  21  33
ATOM     33  CB  THR A   2      19.920 -46.711   4.449  0.00  0.00    +0.137 C 
ATOM     34  CG2 THR A   2      18.587 -47.313   4.875  0.00  0.00    +0.034 C 
BRANCH  33  35
ATOM     35  OG1 THR A   2      20.549 -46.102   5.587  0.00  0.00    -0.382 OA
ATOM     36  HG1 THR A   2      21.406 -45.692   5.309  0.00  0.00    +0.210 HD
ENDBRANCH  33  35
ENDBRANCH  21  33
ENDBRANCH  17  21
ENDBRANCH  16  18
BRANCH  16  37
ATOM     37  CB  THR A   3      24.080 -50.048   6.677  0.00  0.00    +0.137 C 
ATOM     38  CG2 THR A   3      24.403 -50.941   7.871  0.00  0.00    +0.034 C 
BRANCH  37  39
ATOM     39  OG1 THR A   3      24.305 -50.800   5.478  0.00  0.00    -0.382 OA
ATOM     40  HG1 THR A   3      25.250 -51.094   5.447  0.00  0.00    +0.210 HD
ENDBRANCH  37  39
ENDBRANCH  16  37
ENDBRANCH  12  16
ENDBRANCH  11  14
BRANCH  11  41
ATOM     41  CB  SER A   4      23.022 -45.391   9.101  0.00  0.00    +0.166 C 
BRANCH  41  42
ATOM     42  OG  SER A   4      22.385 -44.529   8.178  0.00  0.00    -0.380 OA
ATOM     43  H   SER A   4      22.897 -43.685   8.109  0.00  0.00    +0.211 HD
ENDBRANCH  41  42
ENDBRANCH  11  41
ENDBRANCH   7  11
ENDBRANCH   6   9
ENDBRANCH   2   6
ENDBRANCH   1   4
BRANCH   1  44
ATOM     44  C   ASN A   6      18.755 -41.671   7.833  0.00  0.00    +0.241 C 
ATOM     45  N   LEU A   7      17.579 -41.054   7.820  0.00  0.00    -0.297 N 
ATOM     46  H   LEU A   7      17.013 -41.028   8.692  0.00  0.00    +0.150 HD
ATOM     47  O   ASN A   6      19.490 -41.728   6.853  0.00  0.00    -0.273 OA
BRANCH  45  48
ATOM     48  CA  LEU A   7      17.060 -40.413   6.619  0.00  0.00    +0.149 C 
BRANCH  48  49
ATOM     49  C   LEU A   7      17.858 -39.221   6.061  0.00  0.00    +0.241 C 
ATOM     50  N   HIS A   8      18.812 -38.676   6.813  0.00  0.00    -0.297 N 
ATOM     51  H   HIS A   8      19.006 -39.037   7.769  0.00  0.00    +0.150 HD
ATOM     52  O   LEU A   7      17.602 -38.792   4.936  0.00  0.00    -0.273 OA
BRANCH  50  53
ATOM     53  CA  HIS A   8      19.581 -37.560   6.267  0.00  0.00    +0.155 C 
BRANCH  53  54
ATOM     54  C   HIS A   8      20.644 -38.093   5.312  0.00  0.00    +0.241 C 
ATOM     55  N   GLY A   9      20.590 -39.396   5.043  0.00  0.00    -0.295 N 
ATOM     56  H   GLY A   9      19.851 -39.976   5.489  0.00  0.00    +0.150 HD
ATOM     57  O   HIS A   8      21.492 -37.341   4.833  0.00  0.00    -0.273 OA
BRANCH  55  58
ATOM     58  CA  GLY A   9      21.539 -40.026   4.141  0.00  0.00    +0.176 C 
BRANCH  58  59
ATOM     59  C   GLY A   9      20.792 -40.718   3.015  0.00  0.00    +0.243 C 
ATOM     60  N   GLN A  10      19.540 -40.312   2.821  0.00  0.00    -0.297 N 
ATOM     61  H   GLN A  10      19.153 -39.570   3.439  0.00  0.00    +0.150 HD
ATOM     62  O   GLY A   9      21.326 -41.600   2.339  0.00  0.00    -0.273 OA
BRANCH  60  63
ATOM     63  CA  GLN A  10      18.689 -40.868   1.775  0.00  0.00    +0.149 C 
BRANCH  63  64
ATOM     64  C   GLN A  10      17.869 -39.812   1.015  0.00  0.00    +0.244 C 
ATOM     65  N   PRO A  11      17.939 -38.520   1.414  0.00  0.00    -0.273 N 
ATOM     66  CD  PRO A  11      18.830 -37.843   2.369  0.00  0.00    +0.094 C 
ATOM     67  CG  PRO A  11      19.062 -36.520   1.692  0.00  0.00    +0.024 C 
ATOM     68  CB  PRO A  11      17.707 -36.181   1.190  0.00  0.00    +0.030 C 
ATOM     69  CA  PRO A  11      17.141 -37.523   0.691  0.00  0.00    +0.140 C 
ATOM     70  O   GLN A  10      17.166 -40.159   0.061  0.00  0.00    -0.273 OA
BRANCH  69  71
ATOM     71  C   PRO A  11      17.104 -37.612  -0.829  0.00  0.00    +0.227 C 
ATOM     72  O   PRO A  11      16.040 -37.466  -1.429  0.00  0.00    -0.286 OA
ENDBRANCH  69  71
ENDBRANCH  63  64
BRANCH  63  73
ATOM     73  CB  GLN A  10      17.704 -41.873   2.378  0.00  0.00    +0.039 C 
BRANCH  73  74
ATOM     74  CG  GLN A  10      18.318 -42.928   3.268  0.00  0.00    +0.087 C 
BRANCH  74  75
ATOM     75  CD  GLN A  10      17.259 -43.755   3.965  0.00  0.00    +0.219 C 
ATOM     76  NE2 GLN A  10      17.446 -43.998   5.255  0.00  0.00    -0.329 N 
ATOM     77 HE21 GLN A  10      16.753 -44.566   5.783  0.00  0.00    +0.145 HD
ATOM     78 HE22 GLN A  10      18.285 -43.620   5.739  0.00  0.00    +0.145 HD
ATOM     79  OE1 GLN A  10      16.286 -44.177   3.347  0.00  0.00    -0.275 OA
ENDBRANCH  74  75
ENDBRANCH  73  74
ENDBRANCH  63  73
ENDBRANCH  60  63
ENDBRANCH  58  59
ENDBRANCH  55  58
ENDBRANCH  53  54
BRANCH  53  80
ATOM     80  CB  HIS A   8      20.245 -36.719   7.368  0.00  0.00    +0.076 C 
BRANCH  80  81
ATOM     81  CG  HIS A   8      21.401 -37.389   8.055  0.00  0.00    +0.082 A 
ATOM     82  ND1 HIS A   8      22.347 -36.682   8.770  0.00  0.00    -0.227 NA
ATOM     83  CE1 HIS A   8      23.224 -37.520   9.292  0.00  0.00    +0.199 A 
ATOM     84  NE2 HIS A   8      22.885 -38.747   8.939  0.00  0.00    -0.221 NA
ATOM     85  CD2 HIS A   8      21.748 -38.694   8.166  0.00  0.00    +0.115 A 
ENDBRANCH  80  81
ENDBRANCH  53  80
ENDBRANCH  50  53
ENDBRANCH  48  49
BRANCH  48  86
ATOM     86  CB  LEU A   7      15.596 -40.008   6.846  0.00  0.00    +0.029 C 
BRANCH  86  87
ATOM     87  CG  LEU A   7      14.547 -41.100   6.580  0.00  0.00    +0.002 C 
ATOM     88  CD2 LEU A   7      13.217 -40.764   7.244  0.00  0.00    +0.000 C 
ATOM     89  CD1 LEU A   7      14.374 -41.260   5.073  0.00  0.00    +0.000 C 
ENDBRANCH  86  87
ENDBRANCH  48  86
ENDBRANCH  45  48
ENDBRANCH   1  44
BRANCH   1  90
ATOM     90  CB  ASN A   6      20.464 -41.702   9.650  0.00  0.00    +0.114 C 
BRANCH  90  91
ATOM     91  CG  ASN A   6      20.940 -42.334  10.956  0.00  0.00    +0.222 C 
ATOM     92  OD1 ASN A   6      20.132 -42.705  11.806  0.00  0.00    -0.275 OA
ATOM     93  ND2 ASN A   6      22.251 -42.450  11.119  0.00  0.00    -0.329 N 
ATOM     94 HD21 ASN A   6      22.631 -42.868  11.992  0.00  0.00    +0.145 HD
ATOM     95 HD22 ASN A   6      22.899 -42.123  10.374  0.00  0.00    +0.145 HD
ENDBRANCH  90  91
ENDBRANCH   1  90
TORSDOF 38
REMARK  Name = ../refined-set-2016/3lp4/3lp4_pocket.pdb
REMARK  132 active torsions:
REMARK  status: ('A' for Active; 'I' for Inactive)
REMARK    1  A    between atoms: _1  and  _3
REMARK    2  A    between atoms: _3  and  _4
REMARK    3  A    between atoms: _6  and  _8
REMARK    4  A    between atoms: _8  and  _9
REMARK    5  A    between atoms: _8  and  _11
REMARK    6  A    between atoms: _11  and  _12
REMARK    7  A    between atoms: _12  and  _13
REMARK    8  A    between atoms: _18  and  _20
REMARK    9  A    between atoms: _20  and  _21
REMARK   10  A    between atoms: _20  and  _23
REMARK   11  A    between atoms: _23  and  _24
REMARK   12  A    between atoms: _24  and  _25
REMARK   13  A    between atoms: _25  and  _26
REMARK   14  A    between atoms: _35  and  _37
REMARK   15  A    between atoms: _37  and  _38
REMARK   16  A    between atoms: _37  and  _40
REMARK   17  A    between atoms: _40  and  _41
REMARK   18  A    between atoms: _44  and  _46
REMARK   19  A    between atoms: _46  and  _47
REMARK   20  A    between atoms: _46  and  _49
REMARK   21  A    between atoms: _49  and  _50
REMARK   22  A    between atoms: _51  and  MN_357
REMARK   23  A    between atoms: _55  and  _57
REMARK   24  A    between atoms: _57  and  _58
REMARK   25  A    between atoms: _57  and  _60
REMARK   26  A    between atoms: _60  and  _61
REMARK   27  A    between atoms: _63  and  _65
REMARK   28  A    between atoms: _65  and  _66
REMARK   29  A    between atoms: _65  and  _68
REMARK   30  A    between atoms: _68  and  _69
REMARK   31  A    between atoms: _79  and  _81
REMARK   32  A    between atoms: _107  and  _110
REMARK   33  A    between atoms: _110  and  _111
REMARK   34  A    between atoms: _116  and  _117
REMARK   35  A    between atoms: _123  and  _125
REMARK   36  A    between atoms: _125  and  _126
REMARK   37  A    between atoms: _125  and  _128
REMARK   38  A    between atoms: _128  and  _129
REMARK   39  A    between atoms: _132  and  _134
REMARK   40  A    between atoms: _134  and  _135
REMARK   41  A    between atoms: _134  and  _137
REMARK   42  A    between atoms: _137  and  _138
REMARK   43  A    between atoms: _143  and  _145
REMARK   44  A    between atoms: _145  and  _146
REMARK   45  A    between atoms: _145  and  _148
REMARK   46  A    between atoms: _148  and  _149
REMARK   47  A    between atoms: _152  and  _154
REMARK   48  A    between atoms: _154  and  _155
REMARK   49  A    between atoms: _154  and  _157
REMARK   50  A    between atoms: _157  and  _158
REMARK   51  A    between atoms: _161  and  _163
REMARK   52  A    between atoms: _163  and  _164
REMARK   53  A    between atoms: _163  and  _166
REMARK   54  A    between atoms: _166  and  _167
REMARK   55  A    between atoms: _170  and  _172
REMARK   56  A    between atoms: _172  and  _173
REMARK   57  A    between atoms: _172  and  _175
REMARK   58  A    between atoms: _175  and  _176
REMARK   59  A    between atoms: _179  and  _181
REMARK   60  A    between atoms: _181  and  _182
REMARK   61  A    between atoms: _181  and  _184
REMARK   62  A    between atoms: _184  and  _185
REMARK   63  A    between atoms: _187  and  _189
REMARK   64  A    between atoms: _189  and  _190
REMARK   65  A    between atoms: _192  and  _194
REMARK   66  A    between atoms: _194  and  _195
REMARK   67  A    between atoms: _194  and  _197
REMARK   68  A    between atoms: _197  and  _198
REMARK   69  A    between atoms: _203  and  _205
REMARK   70  A    between atoms: _205  and  _206
REMARK   71  A    between atoms: _205  and  _208
REMARK   72  A    between atoms: _208  and  _209
REMARK   73  A    between atoms: _212  and  _214
REMARK   74  A    between atoms: _214  and  _215
REMARK   75  A    between atoms: _214  and  _217
REMARK   76  A    between atoms: _217  and  _218
REMARK   77  A    between atoms: _223  and  _225
REMARK   78  A    between atoms: _225  and  _226
REMARK   79  A    between atoms: _228  and  _230
REMARK   80  A    between atoms: _230  and  _231
REMARK   81  A    between atoms: _230  and  _233
REMARK   82  A    between atoms: _233  and  _234
REMARK   83  A    between atoms: _234  and  _235
REMARK   84  A    between atoms: _241  and  _242
REMARK   85  A    between atoms: _247  and  _249
REMARK   86  A    between atoms: _249  and  _250
REMARK   87  A    between atoms: _249  and  _252
REMARK   88  A    between atoms: _252  and  _253
REMARK   89  A    between atoms: _256  and  _258
REMARK   90  A    between atoms: _258  and  _259
REMARK   91  A    between atoms: _258  and  _261
REMARK   92  A    between atoms: _264  and  _266
REMARK   93  A    between atoms: _266  and  _267
REMARK   94  A    between atoms: _266  and  _269
REMARK   95  A    between atoms: _269  and  _270
REMARK   96  A    between atoms: _274  and  _275
REMARK   97  A    between atoms: _280  and  _282
REMARK   98  A    between atoms: _282  and  _283
REMARK   99  A    between atoms: _282  and  _285
REMARK  100  A    between atoms: _285  and  _286
REMARK  101  A    between atoms: _286  and  _287
REMARK  102  A    between atoms: _290  and  _292
REMARK  103  A    between atoms: _292  and  _293
REMARK  104  A    between atoms: _292  and  _295
REMARK  105  A    between atoms: _295  and  _296
REMARK  106  A    between atoms: _296  and  _298
REMARK  107  A    between atoms: _298  and  MN_357
REMARK  108  A    between atoms: _299  and  _301
REMARK  109  A    between atoms: _301  and  _302
REMARK  110  A    between atoms: _301  and  _304
REMARK  111  A    between atoms: _304  and  _305
REMARK  112  A    between atoms: _305  and  _306
REMARK  113  A    between atoms: _306  and  MN_356
REMARK  114  A    between atoms: _308  and  _310
REMARK  115  A    between atoms: _310  and  _311
REMARK  116  A    between atoms: _310  and  _313
REMARK  117  A    between atoms: _313  and  _314
REMARK  118  A    between atoms: _317  and  _319
REMARK  119  A    between atoms: _319  and  _320
REMARK  120  A    between atoms: _322  and  _324
REMARK  121  A    between atoms: _324  and  _325
REMARK  122  A    between atoms: _324  and  _327
REMARK  123  A    between atoms: _327  and  _328
REMARK  124  A    between atoms: _332  and  _333
REMARK  125  A    between atoms: _338  and  _340
REMARK  126  A    between atoms: _340  and  _341
REMARK  127  A    between atoms: _340  and  _343
REMARK  128  A    between atoms: _346  and  _348
REMARK  129  A    between atoms: _348  and  _349
REMARK  130  A    between atoms: _348  and  _351
REMARK  131  A    between atoms: _351  and  _352
REMARK  132  A    between atoms: _352  and  _353
REMARK                            x       y       z     vdW  Elec       q    Type
REMARK                         _______ _______ _______ _____ _____    ______ ____
ROOT
ATOM      1  C   VAL A   2      30.012 -44.412  -0.145  0.00  0.00    +0.241 C 
ATOM      2  N   ASP A   3      28.836 -44.823   0.325  0.00  0.00    -0.297 N 
ATOM      3  H   ASP A   3      28.084 -44.128   0.507  0.00  0.00    +0.150 HD
ATOM      4  O   VAL A   2      30.944 -45.186  -0.391  0.00  0.00    -0.273 OA
ENDROOT
BRANCH   1   5
ATOM      5  CA  VAL A   2      30.173 -42.915  -0.400  0.00  0.00    +0.148 C 
BRANCH   5   8
ATOM      6  C   ASP A   1      31.261 -41.587   1.378  0.00  0.00    +0.239 C 
ATOM      7  O   ASP A   1      30.202 -41.274   1.921  0.00  0.00    -0.274 OA
ATOM      8  N   VAL A   2      31.333 -42.363   0.298  0.00  0.00    -0.297 N 
ATOM      9  H   VAL A   2      32.277 -42.591  -0.074  0.00  0.00    +0.150 HD
BRANCH   6  10
ATOM     10  CA  ASP A   1      32.608 -41.097   1.913  0.00  0.00    +0.156 C 
BRANCH  10  11
ATOM     11  N   ASP A   1      33.066 -39.985   1.069  0.00  0.00    -0.238 NA
ATOM     12  H   ASP A   1      32.356 -39.409   0.573  0.00  0.00    +0.142 HD
ENDBRANCH  10  11
BRANCH  10  13
ATOM     13  CB  ASP A   1      32.489 -40.667   3.382  0.00  0.00    +0.140 C 
BRANCH  13  14
ATOM     14  CG  ASP A   1      32.045 -41.806   4.301  0.00  0.00    +0.367 C 
ATOM     15  OD2 ASP A   1      31.436 -41.511   5.349  0.00  0.00    -0.246 OA
ATOM     16  OD1 ASP A   1      32.310 -42.989   3.994  0.00  0.00    -0.246 OA
ENDBRANCH  13  14
ENDBRANCH  10  13
ENDBRANCH   6  10
ENDBRANCH   5   8
BRANCH   5  17
ATOM     17  CB  VAL A   2      30.329 -42.710  -1.929  0.00  0.00    +0.027 C 
ATOM     18  CG2 VAL A   2      30.489 -41.212  -2.242  0.00  0.00    +0.002 C 
ATOM     19  CG1 VAL A   2      29.143 -43.329  -2.671  0.00  0.00    +0.002 C 
ENDBRANCH   5  17
ENDBRANCH   1   5
BRANCH   2  20
ATOM     20  CA  ASP A   3      28.588 -46.242   0.589  0.00  0.00    +0.160 C 
BRANCH  20  21
ATOM     21  C   ASP A   3      28.685 -47.065  -0.704  0.00  0.00    +0.244 C 
ATOM     22  N   PRO A   4      28.708 -48.406  -0.586  0.00  0.00    -0.273 N 
ATOM     23  CD  PRO A   4      28.951 -49.186   0.637  0.00  0.00    +0.094 C 
ATOM     24  CG  PRO A   4      29.712 -50.369   0.105  0.00  0.00    +0.024 C 
ATOM     25  CB  PRO A   4      28.977 -50.667  -1.139  0.00  0.00    +0.030 C 
ATOM     26  CA  PRO A   4      28.792 -49.281  -1.761  0.00  0.00    +0.140 C 
ATOM     27  O   ASP A   3      28.769 -46.503  -1.805  0.00  0.00    -0.273 OA
BRANCH  26  28
ATOM     28  C   PRO A   4      27.535 -49.205  -2.633  0.00  0.00    +0.227 C 
ATOM     29  O   PRO A   4      27.622 -49.074  -3.853  0.00  0.00    -0.286 OA
ENDBRANCH  26  28
ENDBRANCH  20  21
BRANCH  20  30
ATOM     30  CB  ASP A   3      27.204 -46.431   1.231  0.00  0.00    +0.143 C 
BRANCH  30  31
ATOM     31  CG  ASP A   3      27.116 -45.822   2.628  0.00  0.00    +0.367 C 
ATOM     32  OD2 ASP A   3      28.114 -45.903   3.374  0.00  0.00    -0.246 OA
ATOM     33  OD1 ASP A   3      26.049 -45.281   2.993  0.00  0.00    -0.246 OA
ENDBRANCH  30  31
ENDBRANCH  20  30
ENDBRANCH   2  20
TORSDOF 12
REMARK  Name = ../refined-set-2016/3lp4/3lp4_pocket.pdb
REMARK  132 active torsions:
REMARK  status: ('A' for Active; 'I' for Inactive)
REMARK    1  A    between atoms: _1  and  _3
REMARK    2  A    between atoms: _3  and  _4
REMARK    3  A    between atoms: _6  and  _8
REMARK    4  A    between atoms: _8  and  _9
REMARK    5  A    between atoms: _8  and  _11
REMARK    6  A    between atoms: _11  and  _12
REMARK    7  A    between atoms: _12  and  _13
REMARK    8  A    between atoms: _18  and  _20
REMARK    9  A    between atoms: _20  and  _21
REMARK   10  A    between atoms: _20  and  _23
REMARK   11  A    between atoms: _23  and  _24
REMARK   12  A    between atoms: _24  and  _25
REMARK   13  A    between atoms: _25  and  _26
REMARK   14  A    between atoms: _35  and  _37
REMARK   15  A    between atoms: _37  and  _38
REMARK   16  A    between atoms: _37  and  _40
REMARK   17  A    between atoms: _40  and  _41
REMARK   18  A    between atoms: _44  and  _46
REMARK   19  A    between atoms: _46  and  _47
REMARK   20  A    between atoms: _46  and  _49
REMARK   21  A    between atoms: _49  and  _50
REMARK   22  A    between atoms: _51  and  MN_357
REMARK   23  A    between atoms: _55  and  _57
REMARK   24  A    between atoms: _57  and  _58
REMARK   25  A    between atoms: _57  and  _60
REMARK   26  A    between atoms: _60  and  _61
REMARK   27  A    between atoms: _63  and  _65
REMARK   28  A    between atoms: _65  and  _66
REMARK   29  A    between atoms: _65  and  _68
REMARK   30  A    between atoms: _68  and  _69
REMARK   31  A    between atoms: _79  and  _81
REMARK   32  A    between atoms: _107  and  _110
REMARK   33  A    between atoms: _110  and  _111
REMARK   34  A    between atoms: _116  and  _117
REMARK   35  A    between atoms: _123  and  _125
REMARK   36  A    between atoms: _125  and  _126
REMARK   37  A    between atoms: _125  and  _128
REMARK   38  A    between atoms: _128  and  _129
REMARK   39  A    between atoms: _132  and  _134
REMARK   40  A    between atoms: _134  and  _135
REMARK   41  A    between atoms: _134  and  _137
REMARK   42  A    between atoms: _137  and  _138
REMARK   43  A    between atoms: _143  and  _145
REMARK   44  A    between atoms: _145  and  _146
REMARK   45  A    between atoms: _145  and  _148
REMARK   46  A    between atoms: _148  and  _149
REMARK   47  A    between atoms: _152  and  _154
REMARK   48  A    between atoms: _154  and  _155
REMARK   49  A    between atoms: _154  and  _157
REMARK   50  A    between atoms: _157  and  _158
REMARK   51  A    between atoms: _161  and  _163
REMARK   52  A    between atoms: _163  and  _164
REMARK   53  A    between atoms: _163  and  _166
REMARK   54  A    between atoms: _166  and  _167
REMARK   55  A    between atoms: _170  and  _172
REMARK   56  A    between atoms: _172  and  _173
REMARK   57  A    between atoms: _172  and  _175
REMARK   58  A    between atoms: _175  and  _176
REMARK   59  A    between atoms: _179  and  _181
REMARK   60  A    between atoms: _181  and  _182
REMARK   61  A    between atoms: _181  and  _184
REMARK   62  A    between atoms: _184  and  _185
REMARK   63  A    between atoms: _187  and  _189
REMARK   64  A    between atoms: _189  and  _190
REMARK   65  A    between atoms: _192  and  _194
REMARK   66  A    between atoms: _194  and  _195
REMARK   67  A    between atoms: _194  and  _197
REMARK   68  A    between atoms: _197  and  _198
REMARK   69  A    between atoms: _203  and  _205
REMARK   70  A    between atoms: _205  and  _206
REMARK   71  A    between atoms: _205  and  _208
REMARK   72  A    between atoms: _208  and  _209
REMARK   73  A    between atoms: _212  and  _214
REMARK   74  A    between atoms: _214  and  _215
REMARK   75  A    between atoms: _214  and  _217
REMARK   76  A    between atoms: _217  and  _218
REMARK   77  A    between atoms: _223  and  _225
REMARK   78  A    between atoms: _225  and  _226
REMARK   79  A    between atoms: _228  and  _230
REMARK   80  A    between atoms: _230  and  _231
REMARK   81  A    between atoms: _230  and  _233
REMARK   82  A    between atoms: _233  and  _234
REMARK   83  A    between atoms: _234  and  _235
REMARK   84  A    between atoms: _241  and  _242
REMARK   85  A    between atoms: _247  and  _249
REMARK   86  A    between atoms: _249  and  _250
REMARK   87  A    between atoms: _249  and  _252
REMARK   88  A    between atoms: _252  and  _253
REMARK   89  A    between atoms: _256  and  _258
REMARK   90  A    between atoms: _258  and  _259
REMARK   91  A    between atoms: _258  and  _261
REMARK   92  A    between atoms: _264  and  _266
REMARK   93  A    between atoms: _266  and  _267
REMARK   94  A    between atoms: _266  and  _269
REMARK   95  A    between atoms: _269  and  _270
REMARK   96  A    between atoms: _274  and  _275
REMARK   97  A    between atoms: _280  and  _282
REMARK   98  A    between atoms: _282  and  _283
REMARK   99  A    between atoms: _282  and  _285
REMARK  100  A    between atoms: _285  and  _286
REMARK  101  A    between atoms: _286  and  _287
REMARK  102  A    between atoms: _290  and  _292
REMARK  103  A    between atoms: _292  and  _293
REMARK  104  A    between atoms: _292  and  _295
REMARK  105  A    between atoms: _295  and  _296
REMARK  106  A    between atoms: _296  and  _298
REMARK  107  A    between atoms: _298  and  MN_357
REMARK  108  A    between atoms: _299  and  _301
REMARK  109  A    between atoms: _301  and  _302
REMARK  110  A    between atoms: _301  and  _304
REMARK  111  A    between atoms: _304  and  _305
REMARK  112  A    between atoms: _305  and  _306
REMARK  113  A    between atoms: _306  and  MN_356
REMARK  114  A    between atoms: _308  and  _310
REMARK  115  A    between atoms: _310  and  _311
REMARK  116  A    between atoms: _310  and  _313
REMARK  117  A    between atoms: _313  and  _314
REMARK  118  A    between atoms: _317  and  _319
REMARK  119  A    between atoms: _319  and  _320
REMARK  120  A    between atoms: _322  and  _324
REMARK  121  A    between atoms: _324  and  _325
REMARK  122  A    between atoms: _324  and  _327
REMARK  123  A    between atoms: _327  and  _328
REMARK  124  A    between atoms: _332  and  _333
REMARK  125  A    between atoms: _338  and  _340
REMARK  126  A    between atoms: _340  and  _341
REMARK  127  A    between atoms: _340  and  _343
REMARK  128  A    between atoms: _346  and  _348
REMARK  129  A    between atoms: _348  and  _349
REMARK  130  A    between atoms: _348  and  _351
REMARK  131  A    between atoms: _351  and  _352
REMARK  132  A    between atoms: _352  and  _353
REMARK                            x       y       z     vdW  Elec       q    Type
REMARK                         _______ _______ _______ _____ _____    ______ ____
ROOT
ATOM      1  CA  GLU A   1      25.390 -45.473  -3.317  0.00  0.00    +0.134 C 
ENDROOT
BRANCH   1   2
ATOM      2  N   GLU A   1      25.455 -46.828  -2.772  0.00  0.00    -0.239 NA
ATOM      3  H   GLU A   1      25.903 -46.975  -1.845  0.00  0.00    +0.142 HD
ENDBRANCH   1   2
BRANCH   1   4
ATOM      4  C   GLU A   1      26.279 -45.349  -4.558  0.00  0.00    +0.224 C 
ATOM      5  O   GLU A   1      25.882 -44.762  -5.555  0.00  0.00    -0.287 OA
ENDBRANCH   1   4
BRANCH   1   6
ATOM      6  CB  GLU A   1      25.842 -44.453  -2.267  0.00  0.00    +0.037 C 
BRANCH   6   7
ATOM      7  CG  GLU A   1      24.865 -44.258  -1.119  0.00  0.00    +0.116 C 
BRANCH   7   8
ATOM      8  CD  GLU A   1      25.311 -43.183  -0.150  0.00  0.00    +0.365 C 
ATOM      9  OE2 GLU A   1      26.349 -43.376   0.509  0.00  0.00    -0.246 OA
ATOM     10  OE1 GLU A   1      24.633 -42.146  -0.045  0.00  0.00    -0.246 OA
ENDBRANCH   7   8
ENDBRANCH   6   7
ENDBRANCH   1   6
TORSDOF 5
REMARK  Name = ../refined-set-2016/3lp4/3lp4_pocket.pdb
REMARK  132 active torsions:
REMARK  status: ('A' for Active; 'I' for Inactive)
REMARK    1  A    between atoms: _1  and  _3
REMARK    2  A    between atoms: _3  and  _4
REMARK    3  A    between atoms: _6  and  _8
REMARK    4  A    between atoms: _8  and  _9
REMARK    5  A    between atoms: _8  and  _11
REMARK    6  A    between atoms: _11  and  _12
REMARK    7  A    between atoms: _12  and  _13
REMARK    8  A    between atoms: _18  and  _20
REMARK    9  A    between atoms: _20  and  _21
REMARK   10  A    between atoms: _20  and  _23
REMARK   11  A    between atoms: _23  and  _24
REMARK   12  A    between atoms: _24  and  _25
REMARK   13  A    between atoms: _25  and  _26
REMARK   14  A    between atoms: _35  and  _37
REMARK   15  A    between atoms: _37  and  _38
REMARK   16  A    between atoms: _37  and  _40
REMARK   17  A    between atoms: _40  and  _41
REMARK   18  A    between atoms: _44  and  _46
REMARK   19  A    between atoms: _46  and  _47
REMARK   20  A    between atoms: _46  and  _49
REMARK   21  A    between atoms: _49  and  _50
REMARK   22  A    between atoms: _51  and  MN_357
REMARK   23  A    between atoms: _55  and  _57
REMARK   24  A    between atoms: _57  and  _58
REMARK   25  A    between atoms: _57  and  _60
REMARK   26  A    between atoms: _60  and  _61
REMARK   27  A    between atoms: _63  and  _65
REMARK   28  A    between atoms: _65  and  _66
REMARK   29  A    between atoms: _65  and  _68
REMARK   30  A    between atoms: _68  and  _69
REMARK   31  A    between atoms: _79  and  _81
REMARK   32  A    between atoms: _107  and  _110
REMARK   33  A    between atoms: _110  and  _111
REMARK   34  A    between atoms: _116  and  _117
REMARK   35  A    between atoms: _123  and  _125
REMARK   36  A    between atoms: _125  and  _126
REMARK   37  A    between atoms: _125  and  _128
REMARK   38  A    between atoms: _128  and  _129
REMARK   39  A    between atoms: _132  and  _134
REMARK   40  A    between atoms: _134  and  _135
REMARK   41  A    between atoms: _134  and  _137
REMARK   42  A    between atoms: _137  and  _138
REMARK   43  A    between atoms: _143  and  _145
REMARK   44  A    between atoms: _145  and  _146
REMARK   45  A    between atoms: _145  and  _148
REMARK   46  A    between atoms: _148  and  _149
REMARK   47  A    between atoms: _152  and  _154
REMARK   48  A    between atoms: _154  and  _155
REMARK   49  A    between atoms: _154  and  _157
REMARK   50  A    between atoms: _157  and  _158
REMARK   51  A    between atoms: _161  and  _163
REMARK   52  A    between atoms: _163  and  _164
REMARK   53  A    between atoms: _163  and  _166
REMARK   54  A    between atoms: _166  and  _167
REMARK   55  A    between atoms: _170  and  _172
REMARK   56  A    between atoms: _172  and  _173
REMARK   57  A    between atoms: _172  and  _175
REMARK   58  A    between atoms: _175  and  _176
REMARK   59  A    between atoms: _179  and  _181
REMARK   60  A    between atoms: _181  and  _182
REMARK   61  A    between atoms: _181  and  _184
REMARK   62  A    between atoms: _184  and  _185
REMARK   63  A    between atoms: _187  and  _189
REMARK   64  A    between atoms: _189  and  _190
REMARK   65  A    between atoms: _192  and  _194
REMARK   66  A    between atoms: _194  and  _195
REMARK   67  A    between atoms: _194  and  _197
REMARK   68  A    between atoms: _197  and  _198
REMARK   69  A    between atoms: _203  and  _205
REMARK   70  A    between atoms: _205  and  _206
REMARK   71  A    between atoms: _205  and  _208
REMARK   72  A    between atoms: _208  and  _209
REMARK   73  A    between atoms: _212  and  _214
REMARK   74  A    between atoms: _214  and  _215
REMARK   75  A    between atoms: _214  and  _217
REMARK   76  A    between atoms: _217  and  _218
REMARK   77  A    between atoms: _223  and  _225
REMARK   78  A    between atoms: _225  and  _226
REMARK   79  A    between atoms: _228  and  _230
REMARK   80  A    between atoms: _230  and  _231
REMARK   81  A    between atoms: _230  and  _233
REMARK   82  A    between atoms: _233  and  _234
REMARK   83  A    between atoms: _234  and  _235
REMARK   84  A    between atoms: _241  and  _242
REMARK   85  A    between atoms: _247  and  _249
REMARK   86  A    between atoms: _249  and  _250
REMARK   87  A    between atoms: _249  and  _252
REMARK   88  A    between atoms: _252  and  _253
REMARK   89  A    between atoms: _256  and  _258
REMARK   90  A    between atoms: _258  and  _259
REMARK   91  A    between atoms: _258  and  _261
REMARK   92  A    between atoms: _264  and  _266
REMARK   93  A    between atoms: _266  and  _267
REMARK   94  A    between atoms: _266  and  _269
REMARK   95  A    between atoms: _269  and  _270
REMARK   96  A    between atoms: _274  and  _275
REMARK   97  A    between atoms: _280  and  _282
REMARK   98  A    between atoms: _282  and  _283
REMARK   99  A    between atoms: _282  and  _285
REMARK  100  A    between atoms: _285  and  _286
REMARK  101  A    between atoms: _286  and  _287
REMARK  102  A    between atoms: _290  and  _292
REMARK  103  A    between atoms: _292  and  _293
REMARK  104  A    between atoms: _292  and  _295
REMARK  105  A    between atoms: _295  and  _296
REMARK  106  A    between atoms: _296  and  _298
REMARK  107  A    between atoms: _298  and  MN_357
REMARK  108  A    between atoms: _299  and  _301
REMARK  109  A    between atoms: _301  and  _302
REMARK  110  A    between atoms: _301  and  _304
REMARK  111  A    between atoms: _304  and  _305
REMARK  112  A    between atoms: _305  and  _306
REMARK  113  A    between atoms: _306  and  MN_356
REMARK  114  A    between atoms: _308  and  _310
REMARK  115  A    between atoms: _310  and  _311
REMARK  116  A    between atoms: _310  and  _313
REMARK  117  A    between atoms: _313  and  _314
REMARK  118  A    between atoms: _317  and  _319
REMARK  119  A    between atoms: _319  and  _320
REMARK  120  A    between atoms: _322  and  _324
REMARK  121  A    between atoms: _324  and  _325
REMARK  122  A    between atoms: _324  and  _327
REMARK  123  A    between atoms: _327  and  _328
REMARK  124  A    between atoms: _332  and  _333
REMARK  125  A    between atoms: _338  and  _340
REMARK  126  A    between atoms: _340  and  _341
REMARK  127  A    between atoms: _340  and  _343
REMARK  128  A    between atoms: _346  and  _348
REMARK  129  A    between atoms: _348  and  _349
REMARK  130  A    between atoms: _348  and  _351
REMARK  131  A    between atoms: _351  and  _352
REMARK  132  A    between atoms: _352  and  _353
REMARK                            x       y       z     vdW  Elec       q    Type
REMARK                         _______ _______ _______ _____ _____    ______ ____
ROOT
ATOM      1  CA  THR A   3      29.216 -36.595  10.002  0.00  0.00    +0.176 C 
ENDROOT
BRANCH   1   2
ATOM      2  C   THR A   3      30.408 -36.011   9.249  0.00  0.00    +0.246 C 
ATOM      3  N   PRO A   4      31.405 -35.493   9.988  0.00  0.00    -0.272 N 
ATOM      4  CD  PRO A   4      31.452 -35.401  11.462  0.00  0.00    +0.094 C 
ATOM      5  CG  PRO A   4      32.897 -35.036  11.729  0.00  0.00    +0.024 C 
ATOM      6  CB  PRO A   4      33.224 -34.131  10.554  0.00  0.00    +0.031 C 
ATOM      7  CA  PRO A   4      32.603 -34.895   9.387  0.00  0.00    +0.152 C 
ATOM      8  O   THR A   3      30.453 -36.040   8.016  0.00  0.00    -0.273 OA
BRANCH   7   9
ATOM      9  C   PRO A   4      33.568 -35.911   8.782  0.00  0.00    +0.241 C 
ATOM     10  O   PRO A   4      33.691 -37.033   9.282  0.00  0.00    -0.273 OA
ATOM     11  N   VAL A   5      34.242 -35.506   7.703  0.00  0.00    -0.298 N 
ATOM     12  H   VAL A   5      34.070 -34.548   7.336  0.00  0.00    +0.150 HD
BRANCH  11  13
ATOM     13  CA  VAL A   5      35.212 -36.357   7.018  0.00  0.00    +0.137 C 
BRANCH  13  14
ATOM     14  CB  VAL A   5      34.629 -36.994   5.724  0.00  0.00    +0.026 C 
ATOM     15  CG2 VAL A   5      33.210 -37.471   5.956  0.00  0.00    +0.002 C 
ATOM     16  CG1 VAL A   5      35.521 -38.158   5.269  0.00  0.00    +0.002 C 
ENDBRANCH  13  14
BRANCH  13  17
ATOM     17  C   VAL A   5      36.420 -35.509   6.617  0.00  0.00    +0.227 C 
ATOM     18  O   VAL A   5      36.274 -34.501   5.917  0.00  0.00    -0.286 OA
ENDBRANCH  13  17
ENDBRANCH  11  13
ENDBRANCH   7   9
ENDBRANCH   1   2
BRANCH   1  21
ATOM     19  C   GLY A   2      28.221 -35.668  11.993  0.00  0.00    +0.243 C 
ATOM     20  O   GLY A   2      28.720 -36.563  12.678  0.00  0.00    -0.273 OA
ATOM     21  N   THR A   3      28.426 -35.583  10.689  0.00  0.00    -0.295 N 
ATOM     22  H   THR A   3      28.021 -34.790  10.152  0.00  0.00    +0.150 HD
BRANCH  19  23
ATOM     23  CA  GLY A   2      27.339 -34.604  12.629  0.00  0.00    +0.176 C 
BRANCH  23  26
ATOM     24  C   THR A   1      28.574 -32.511  12.531  0.00  0.00    +0.241 C 
ATOM     25  O   THR A   1      29.571 -33.024  13.046  0.00  0.00    -0.274 OA
ATOM     26  N   GLY A   2      27.461 -33.195  12.277  0.00  0.00    -0.295 N 
ATOM     27  H   GLY A   2      26.661 -32.714  11.818  0.00  0.00    +0.150 HD
BRANCH  24  28
ATOM     28  CA  THR A   1      28.564 -31.017  12.176  0.00  0.00    +0.172 C 
BRANCH  28  29
ATOM     29  N   THR A   1      29.509 -30.366  13.069  0.00  0.00    -0.236 NA
ATOM     30  H   THR A   1      30.362 -30.881  13.367  0.00  0.00    +0.142 HD
ENDBRANCH  28  29
BRANCH  28  31
ATOM     31  CB  THR A   1      28.942 -30.755  10.681  0.00  0.00    +0.135 C 
ATOM     32  CG2 THR A   1      30.254 -31.437  10.316  0.00  0.00    +0.034 C 
BRANCH  31  33
ATOM     33  OG1 THR A   1      27.889 -31.229   9.833  0.00  0.00    -0.383 OA
ATOM     34  HG1 THR A   1      27.050 -30.750  10.051  0.00  0.00    +0.210 HD
ENDBRANCH  31  33
ENDBRANCH  28  31
ENDBRANCH  24  28
ENDBRANCH  23  26
ENDBRANCH  19  23
ENDBRANCH   1  21
BRANCH   1  35
ATOM     35  CB  THR A   3      28.309 -37.368   9.028  0.00  0.00    +0.137 C 
ATOM     36  CG2 THR A   3      27.337 -38.259   9.791  0.00  0.00    +0.034 C 
BRANCH  35  37
ATOM     37  OG1 THR A   3      27.554 -36.434   8.251  0.00  0.00    -0.382 OA
ATOM     38  HG1 THR A   3      26.999 -35.878   8.853  0.00  0.00    +0.210 HD
ENDBRANCH  35  37
ENDBRANCH   1  35
TORSDOF 14
REMARK  Name = ../refined-set-2016/3lp4/3lp4_pocket.pdb
REMARK  132 active torsions:
REMARK  status: ('A' for Active; 'I' for Inactive)
REMARK    1  A    between atoms: _1  and  _3
REMARK    2  A    between atoms: _3  and  _4
REMARK    3  A    between atoms: _6  and  _8
REMARK    4  A    between atoms: _8  and  _9
REMARK    5  A    between atoms: _8  and  _11
REMARK    6  A    between atoms: _11  and  _12
REMARK    7  A    between atoms: _12  and  _13
REMARK    8  A    between atoms: _18  and  _20
REMARK    9  A    between atoms: _20  and  _21
REMARK   10  A    between atoms: _20  and  _23
REMARK   11  A    between atoms: _23  and  _24
REMARK   12  A    between atoms: _24  and  _25
REMARK   13  A    between atoms: _25  and  _26
REMARK   14  A    between atoms: _35  and  _37
REMARK   15  A    between atoms: _37  and  _38
REMARK   16  A    between atoms: _37  and  _40
REMARK   17  A    between atoms: _40  and  _41
REMARK   18  A    between atoms: _44  and  _46
REMARK   19  A    between atoms: _46  and  _47
REMARK   20  A    between atoms: _46  and  _49
REMARK   21  A    between atoms: _49  and  _50
REMARK   22  A    between atoms: _51  and  MN_357
REMARK   23  A    between atoms: _55  and  _57
REMARK   24  A    between atoms: _57  and  _58
REMARK   25  A    between atoms: _57  and  _60
REMARK   26  A    between atoms: _60  and  _61
REMARK   27  A    between atoms: _63  and  _65
REMARK   28  A    between atoms: _65  and  _66
REMARK   29  A    between atoms: _65  and  _68
REMARK   30  A    between atoms: _68  and  _69
REMARK   31  A    between atoms: _79  and  _81
REMARK   32  A    between atoms: _107  and  _110
REMARK   33  A    between atoms: _110  and  _111
REMARK   34  A    between atoms: _116  and  _117
REMARK   35  A    between atoms: _123  and  _125
REMARK   36  A    between atoms: _125  and  _126
REMARK   37  A    between atoms: _125  and  _128
REMARK   38  A    between atoms: _128  and  _129
REMARK   39  A    between atoms: _132  and  _134
REMARK   40  A    between atoms: _134  and  _135
REMARK   41  A    between atoms: _134  and  _137
REMARK   42  A    between atoms: _137  and  _138
REMARK   43  A    between atoms: _143  and  _145
REMARK   44  A    between atoms: _145  and  _146
REMARK   45  A    between atoms: _145  and  _148
REMARK   46  A    between atoms: _148  and  _149
REMARK   47  A    between atoms: _152  and  _154
REMARK   48  A    between atoms: _154  and  _155
REMARK   49  A    between atoms: _154  and  _157
REMARK   50  A    between atoms: _157  and  _158
REMARK   51  A    between atoms: _161  and  _163
REMARK   52  A    between atoms: _163  and  _164
REMARK   53  A    between atoms: _163  and  _166
REMARK   54  A    between atoms: _166  and  _167
REMARK   55  A    between atoms: _170  and  _172
REMARK   56  A    between atoms: _172  and  _173
REMARK   57  A    between atoms: _172  and  _175
REMARK   58  A    between atoms: _175  and  _176
REMARK   59  A    between atoms: _179  and  _181
REMARK   60  A    between atoms: _181  and  _182
REMARK   61  A    between atoms: _181  and  _184
REMARK   62  A    between atoms: _184  and  _185
REMARK   63  A    between atoms: _187  and  _189
REMARK   64  A    between atoms: _189  and  _190
REMARK   65  A    between atoms: _192  and  _194
REMARK   66  A    between atoms: _194  and  _195
REMARK   67  A    between atoms: _194  and  _197
REMARK   68  A    between atoms: _197  and  _198
REMARK   69  A    between atoms: _203  and  _205
REMARK   70  A    between atoms: _205  and  _206
REMARK   71  A    between atoms: _205  and  _208
REMARK   72  A    between atoms: _208  and  _209
REMARK   73  A    between atoms: _212  and  _214
REMARK   74  A    between atoms: _214  and  _215
REMARK   75  A    between atoms: _214  and  _217
REMARK   76  A    between atoms: _217  and  _218
REMARK   77  A    between atoms: _223  and  _225
REMARK   78  A    between atoms: _225  and  _226
REMARK   79  A    between atoms: _228  and  _230
REMARK   80  A    between atoms: _230  and  _231
REMARK   81  A    between atoms: _230  and  _233
REMARK   82  A    between atoms: _233  and  _234
REMARK   83  A    between atoms: _234  and  _235
REMARK   84  A    between atoms: _241  and  _242
REMARK   85  A    between atoms: _247  and  _249
REMARK   86  A    between atoms: _249  and  _250
REMARK   87  A    between atoms: _249  and  _252
REMARK   88  A    between atoms: _252  and  _253
REMARK   89  A    between atoms: _256  and  _258
REMARK   90  A    between atoms: _258  and  _259
REMARK   91  A    between atoms: _258  and  _261
REMARK   92  A    between atoms: _264  and  _266
REMARK   93  A    between atoms: _266  and  _267
REMARK   94  A    between atoms: _266  and  _269
REMARK   95  A    between atoms: _269  and  _270
REMARK   96  A    between atoms: _274  and  _275
REMARK   97  A    between atoms: _280  and  _282
REMARK   98  A    between atoms: _282  and  _283
REMARK   99  A    between atoms: _282  and  _285
REMARK  100  A    between atoms: _285  and  _286
REMARK  101  A    between atoms: _286  and  _287
REMARK  102  A    between atoms: _290  and  _292
REMARK  103  A    between atoms: _292  and  _293
REMARK  104  A    between atoms: _292  and  _295
REMARK  105  A    between atoms: _295  and  _296
REMARK  106  A    between atoms: _296  and  _298
REMARK  107  A    between atoms: _298  and  MN_357
REMARK  108  A    between atoms: _299  and  _301
REMARK  109  A    between atoms: _301  and  _302
REMARK  110  A    between atoms: _301  and  _304
REMARK  111  A    between atoms: _304  and  _305
REMARK  112  A    between atoms: _305  and  _306
REMARK  113  A    between atoms: _306  and  MN_356
REMARK  114  A    between atoms: _308  and  _310
REMARK  115  A    between atoms: _310  and  _311
REMARK  116  A    between atoms: _310  and  _313
REMARK  117  A    between atoms: _313  and  _314
REMARK  118  A    between atoms: _317  and  _319
REMARK  119  A    between atoms: _319  and  _320
REMARK  120  A    between atoms: _322  and  _324
REMARK  121  A    between atoms: _324  and  _325
REMARK  122  A    between atoms: _324  and  _327
REMARK  123  A    between atoms: _327  and  _328
REMARK  124  A    between atoms: _332  and  _333
REMARK  125  A    between atoms: _338  and  _340
REMARK  126  A    between atoms: _340  and  _341
REMARK  127  A    between atoms: _340  and  _343
REMARK  128  A    between atoms: _346  and  _348
REMARK  129  A    between atoms: _348  and  _349
REMARK  130  A    between atoms: _348  and  _351
REMARK  131  A    between atoms: _351  and  _352
REMARK  132  A    between atoms: _352  and  _353
REMARK                            x       y       z     vdW  Elec       q    Type
REMARK                         _______ _______ _______ _____ _____    ______ ____
ROOT
ATOM      1  CA  GLU A   1      24.006 -29.960   9.046  0.00  0.00    +0.134 C 
ENDROOT
BRANCH   1   2
ATOM      2  N   GLU A   1      23.159 -29.227   8.109  0.00  0.00    -0.239 NA
ATOM      3  H   GLU A   1      22.130 -29.288   8.248  0.00  0.00    +0.142 HD
ENDBRANCH   1   2
BRANCH   1   4
ATOM      4  C   GLU A   1      24.856 -29.186  10.051  0.00  0.00    +0.224 C 
ATOM      5  O   GLU A   1      25.764 -29.749  10.660  0.00  0.00    -0.287 OA
ENDBRANCH   1   4
BRANCH   1   6
ATOM      6  CB  GLU A   1      24.884 -30.957   8.270  0.00  0.00    +0.037 C 
BRANCH   6   7
ATOM      7  CG  GLU A   1      24.099 -31.981   7.417  0.00  0.00    +0.116 C 
BRANCH   7   8
ATOM      8  CD  GLU A   1      23.244 -32.954   8.236  0.00  0.00    +0.365 C 
ATOM      9  OE2 GLU A   1      23.214 -32.853   9.478  0.00  0.00    -0.246 OA
ATOM     10  OE1 GLU A   1      22.592 -33.827   7.629  0.00  0.00    -0.246 OA
ENDBRANCH   7   8
ENDBRANCH   6   7
ENDBRANCH   1   6
TORSDOF 5
REMARK  Name = ../refined-set-2016/3lp4/3lp4_pocket.pdb
REMARK  132 active torsions:
REMARK  status: ('A' for Active; 'I' for Inactive)
REMARK    1  A    between atoms: _1  and  _3
REMARK    2  A    between atoms: _3  and  _4
REMARK    3  A    between atoms: _6  and  _8
REMARK    4  A    between atoms: _8  and  _9
REMARK    5  A    between atoms: _8  and  _11
REMARK    6  A    between atoms: _11  and  _12
REMARK    7  A    between atoms: _12  and  _13
REMARK    8  A    between atoms: _18  and  _20
REMARK    9  A    between atoms: _20  and  _21
REMARK   10  A    between atoms: _20  and  _23
REMARK   11  A    between atoms: _23  and  _24
REMARK   12  A    between atoms: _24  and  _25
REMARK   13  A    between atoms: _25  and  _26
REMARK   14  A    between atoms: _35  and  _37
REMARK   15  A    between atoms: _37  and  _38
REMARK   16  A    between atoms: _37  and  _40
REMARK   17  A    between atoms: _40  and  _41
REMARK   18  A    between atoms: _44  and  _46
REMARK   19  A    between atoms: _46  and  _47
REMARK   20  A    between atoms: _46  and  _49
REMARK   21  A    between atoms: _49  and  _50
REMARK   22  A    between atoms: _51  and  MN_357
REMARK   23  A    between atoms: _55  and  _57
REMARK   24  A    between atoms: _57  and  _58
REMARK   25  A    between atoms: _57  and  _60
REMARK   26  A    between atoms: _60  and  _61
REMARK   27  A    between atoms: _63  and  _65
REMARK   28  A    between atoms: _65  and  _66
REMARK   29  A    between atoms: _65  and  _68
REMARK   30  A    between atoms: _68  and  _69
REMARK   31  A    between atoms: _79  and  _81
REMARK   32  A    between atoms: _107  and  _110
REMARK   33  A    between atoms: _110  and  _111
REMARK   34  A    between atoms: _116  and  _117
REMARK   35  A    between atoms: _123  and  _125
REMARK   36  A    between atoms: _125  and  _126
REMARK   37  A    between atoms: _125  and  _128
REMARK   38  A    between atoms: _128  and  _129
REMARK   39  A    between atoms: _132  and  _134
REMARK   40  A    between atoms: _134  and  _135
REMARK   41  A    between atoms: _134  and  _137
REMARK   42  A    between atoms: _137  and  _138
REMARK   43  A    between atoms: _143  and  _145
REMARK   44  A    between atoms: _145  and  _146
REMARK   45  A    between atoms: _145  and  _148
REMARK   46  A    between atoms: _148  and  _149
REMARK   47  A    between atoms: _152  and  _154
REMARK   48  A    between atoms: _154  and  _155
REMARK   49  A    between atoms: _154  and  _157
REMARK   50  A    between atoms: _157  and  _158
REMARK   51  A    between atoms: _161  and  _163
REMARK   52  A    between atoms: _163  and  _164
REMARK   53  A    between atoms: _163  and  _166
REMARK   54  A    between atoms: _166  and  _167
REMARK   55  A    between atoms: _170  and  _172
REMARK   56  A    between atoms: _172  and  _173
REMARK   57  A    between atoms: _172  and  _175
REMARK   58  A    between atoms: _175  and  _176
REMARK   59  A    between atoms: _179  and  _181
REMARK   60  A    between atoms: _181  and  _182
REMARK   61  A    between atoms: _181  and  _184
REMARK   62  A    between atoms: _184  and  _185
REMARK   63  A    between atoms: _187  and  _189
REMARK   64  A    between atoms: _189  and  _190
REMARK   65  A    between atoms: _192  and  _194
REMARK   66  A    between atoms: _194  and  _195
REMARK   67  A    between atoms: _194  and  _197
REMARK   68  A    between atoms: _197  and  _198
REMARK   69  A    between atoms: _203  and  _205
REMARK   70  A    between atoms: _205  and  _206
REMARK   71  A    between atoms: _205  and  _208
REMARK   72  A    between atoms: _208  and  _209
REMARK   73  A    between atoms: _212  and  _214
REMARK   74  A    between atoms: _214  and  _215
REMARK   75  A    between atoms: _214  and  _217
REMARK   76  A    between atoms: _217  and  _218
REMARK   77  A    between atoms: _223  and  _225
REMARK   78  A    between atoms: _225  and  _226
REMARK   79  A    between atoms: _228  and  _230
REMARK   80  A    between atoms: _230  and  _231
REMARK   81  A    between atoms: _230  and  _233
REMARK   82  A    between atoms: _233  and  _234
REMARK   83  A    between atoms: _234  and  _235
REMARK   84  A    between atoms: _241  and  _242
REMARK   85  A    between atoms: _247  and  _249
REMARK   86  A    between atoms: _249  and  _250
REMARK   87  A    between atoms: _249  and  _252
REMARK   88  A    between atoms: _252  and  _253
REMARK   89  A    between atoms: _256  and  _258
REMARK   90  A    between atoms: _258  and  _259
REMARK   91  A    between atoms: _258  and  _261
REMARK   92  A    between atoms: _264  and  _266
REMARK   93  A    between atoms: _266  and  _267
REMARK   94  A    between atoms: _266  and  _269
REMARK   95  A    between atoms: _269  and  _270
REMARK   96  A    between atoms: _274  and  _275
REMARK   97  A    between atoms: _280  and  _282
REMARK   98  A    between atoms: _282  and  _283
REMARK   99  A    between atoms: _282  and  _285
REMARK  100  A    between atoms: _285  and  _286
REMARK  101  A    between atoms: _286  and  _287
REMARK  102  A    between atoms: _290  and  _292
REMARK  103  A    between atoms: _292  and  _293
REMARK  104  A    between atoms: _292  and  _295
REMARK  105  A    between atoms: _295  and  _296
REMARK  106  A    between atoms: _296  and  _298
REMARK  107  A    between atoms: _298  and  MN_357
REMARK  108  A    between atoms: _299  and  _301
REMARK  109  A    between atoms: _301  and  _302
REMARK  110  A    between atoms: _301  and  _304
REMARK  111  A    between atoms: _304  and  _305
REMARK  112  A    between atoms: _305  and  _306
REMARK  113  A    between atoms: _306  and  MN_356
REMARK  114  A    between atoms: _308  and  _310
REMARK  115  A    between atoms: _310  and  _311
REMARK  116  A    between atoms: _310  and  _313
REMARK  117  A    between atoms: _313  and  _314
REMARK  118  A    between atoms: _317  and  _319
REMARK  119  A    between atoms: _319  and  _320
REMARK  120  A    between atoms: _322  and  _324
REMARK  121  A    between atoms: _324  and  _325
REMARK  122  A    between atoms: _324  and  _327
REMARK  123  A    between atoms: _327  and  _328
REMARK  124  A    between atoms: _332  and  _333
REMARK  125  A    between atoms: _338  and  _340
REMARK  126  A    between atoms: _340  and  _341
REMARK  127  A    between atoms: _340  and  _343
REMARK  128  A    between atoms: _346  and  _348
REMARK  129  A    between atoms: _348  and  _349
REMARK  130  A    between atoms: _348  and  _351
REMARK  131  A    between atoms: _351  and  _352
REMARK  132  A    between atoms: _352  and  _353
REMARK                            x       y       z     vdW  Elec       q    Type
REMARK                         _______ _______ _______ _____ _____    ______ ____
ROOT
ATOM      1  O   HOH     1      24.179 -41.682   2.336  0.00  0.00    +0.000 OA
ENDROOT
TORSDOF 0
REMARK  Name = ../refined-set-2016/3lp4/3lp4_pocket.pdb
REMARK  132 active torsions:
REMARK  status: ('A' for Active; 'I' for Inactive)
REMARK    1  A    between atoms: _1  and  _3
REMARK    2  A    between atoms: _3  and  _4
REMARK    3  A    between atoms: _6  and  _8
REMARK    4  A    between atoms: _8  and  _9
REMARK    5  A    between atoms: _8  and  _11
REMARK    6  A    between atoms: _11  and  _12
REMARK    7  A    between atoms: _12  and  _13
REMARK    8  A    between atoms: _18  and  _20
REMARK    9  A    between atoms: _20  and  _21
REMARK   10  A    between atoms: _20  and  _23
REMARK   11  A    between atoms: _23  and  _24
REMARK   12  A    between atoms: _24  and  _25
REMARK   13  A    between atoms: _25  and  _26
REMARK   14  A    between atoms: _35  and  _37
REMARK   15  A    between atoms: _37  and  _38
REMARK   16  A    between atoms: _37  and  _40
REMARK   17  A    between atoms: _40  and  _41
REMARK   18  A    between atoms: _44  and  _46
REMARK   19  A    between atoms: _46  and  _47
REMARK   20  A    between atoms: _46  and  _49
REMARK   21  A    between atoms: _49  and  _50
REMARK   22  A    between atoms: _51  and  MN_357
REMARK   23  A    between atoms: _55  and  _57
REMARK   24  A    between atoms: _57  and  _58
REMARK   25  A    between atoms: _57  and  _60
REMARK   26  A    between atoms: _60  and  _61
REMARK   27  A    between atoms: _63  and  _65
REMARK   28  A    between atoms: _65  and  _66
REMARK   29  A    between atoms: _65  and  _68
REMARK   30  A    between atoms: _68  and  _69
REMARK   31  A    between atoms: _79  and  _81
REMARK   32  A    between atoms: _107  and  _110
REMARK   33  A    between atoms: _110  and  _111
REMARK   34  A    between atoms: _116  and  _117
REMARK   35  A    between atoms: _123  and  _125
REMARK   36  A    between atoms: _125  and  _126
REMARK   37  A    between atoms: _125  and  _128
REMARK   38  A    between atoms: _128  and  _129
REMARK   39  A    between atoms: _132  and  _134
REMARK   40  A    between atoms: _134  and  _135
REMARK   41  A    between atoms: _134  and  _137
REMARK   42  A    between atoms: _137  and  _138
REMARK   43  A    between atoms: _143  and  _145
REMARK   44  A    between atoms: _145  and  _146
REMARK   45  A    between atoms: _145  and  _148
REMARK   46  A    between atoms: _148  and  _149
REMARK   47  A    between atoms: _152  and  _154
REMARK   48  A    between atoms: _154  and  _155
REMARK   49  A    between atoms: _154  and  _157
REMARK   50  A    between atoms: _157  and  _158
REMARK   51  A    between atoms: _161  and  _163
REMARK   52  A    between atoms: _163  and  _164
REMARK   53  A    between atoms: _163  and  _166
REMARK   54  A    between atoms: _166  and  _167
REMARK   55  A    between atoms: _170  and  _172
REMARK   56  A    between atoms: _172  and  _173
REMARK   57  A    between atoms: _172  and  _175
REMARK   58  A    between atoms: _175  and  _176
REMARK   59  A    between atoms: _179  and  _181
REMARK   60  A    between atoms: _181  and  _182
REMARK   61  A    between atoms: _181  and  _184
REMARK   62  A    between atoms: _184  and  _185
REMARK   63  A    between atoms: _187  and  _189
REMARK   64  A    between atoms: _189  and  _190
REMARK   65  A    between atoms: _192  and  _194
REMARK   66  A    between atoms: _194  and  _195
REMARK   67  A    between atoms: _194  and  _197
REMARK   68  A    between atoms: _197  and  _198
REMARK   69  A    between atoms: _203  and  _205
REMARK   70  A    between atoms: _205  and  _206
REMARK   71  A    between atoms: _205  and  _208
REMARK   72  A    between atoms: _208  and  _209
REMARK   73  A    between atoms: _212  and  _214
REMARK   74  A    between atoms: _214  and  _215
REMARK   75  A    between atoms: _214  and  _217
REMARK   76  A    between atoms: _217  and  _218
REMARK   77  A    between atoms: _223  and  _225
REMARK   78  A    between atoms: _225  and  _226
REMARK   79  A    between atoms: _228  and  _230
REMARK   80  A    between atoms: _230  and  _231
REMARK   81  A    between atoms: _230  and  _233
REMARK   82  A    between atoms: _233  and  _234
REMARK   83  A    between atoms: _234  and  _235
REMARK   84  A    between atoms: _241  and  _242
REMARK   85  A    between atoms: _247  and  _249
REMARK   86  A    between atoms: _249  and  _250
REMARK   87  A    between atoms: _249  and  _252
REMARK   88  A    between atoms: _252  and  _253
REMARK   89  A    between atoms: _256  and  _258
REMARK   90  A    between atoms: _258  and  _259
REMARK   91  A    between atoms: _258  and  _261
REMARK   92  A    between atoms: _264  and  _266
REMARK   93  A    between atoms: _266  and  _267
REMARK   94  A    between atoms: _266  and  _269
REMARK   95  A    between atoms: _269  and  _270
REMARK   96  A    between atoms: _274  and  _275
REMARK   97  A    between atoms: _280  and  _282
REMARK   98  A    between atoms: _282  and  _283
REMARK   99  A    between atoms: _282  and  _285
REMARK  100  A    between atoms: _285  and  _286
REMARK  101  A    between atoms: _286  and  _287
REMARK  102  A    between atoms: _290  and  _292
REMARK  103  A    between atoms: _292  and  _293
REMARK  104  A    between atoms: _292  and  _295
REMARK  105  A    between atoms: _295  and  _296
REMARK  106  A    between atoms: _296  and  _298
REMARK  107  A    between atoms: _298  and  MN_357
REMARK  108  A    between atoms: _299  and  _301
REMARK  109  A    between atoms: _301  and  _302
REMARK  110  A    between atoms: _301  and  _304
REMARK  111  A    between atoms: _304  and  _305
REMARK  112  A    between atoms: _305  and  _306
REMARK  113  A    between atoms: _306  and  MN_356
REMARK  114  A    between atoms: _308  and  _310
REMARK  115  A    between atoms: _310  and  _311
REMARK  116  A    between atoms: _310  and  _313
REMARK  117  A    between atoms: _313  and  _314
REMARK  118  A    between atoms: _317  and  _319
REMARK  119  A    between atoms: _319  and  _320
REMARK  120  A    between atoms: _322  and  _324
REMARK  121  A    between atoms: _324  and  _325
REMARK  122  A    between atoms: _324  and  _327
REMARK  123  A    between atoms: _327  and  _328
REMARK  124  A    between atoms: _332  and  _333
REMARK  125  A    between atoms: _338  and  _340
REMARK  126  A    between atoms: _340  and  _341
REMARK  127  A    between atoms: _340  and  _343
REMARK  128  A    between atoms: _346  and  _348
REMARK  129  A    between atoms: _348  and  _349
REMARK  130  A    between atoms: _348  and  _351
REMARK  131  A    between atoms: _351  and  _352
REMARK  132  A    between atoms: _352  and  _353
REMARK                            x       y       z     vdW  Elec       q    Type
REMARK                         _______ _______ _______ _____ _____    ______ ____
ROOT
ATOM      1  O   HOH     1      27.636 -41.005   1.128  0.00  0.00    +0.000 OA
ENDROOT
TORSDOF 0
REMARK  Name = ../refined-set-2016/3lp4/3lp4_pocket.pdb
REMARK  132 active torsions:
REMARK  status: ('A' for Active; 'I' for Inactive)
REMARK    1  A    between atoms: _1  and  _3
REMARK    2  A    between atoms: _3  and  _4
REMARK    3  A    between atoms: _6  and  _8
REMARK    4  A    between atoms: _8  and  _9
REMARK    5  A    between atoms: _8  and  _11
REMARK    6  A    between atoms: _11  and  _12
REMARK    7  A    between atoms: _12  and  _13
REMARK    8  A    between atoms: _18  and  _20
REMARK    9  A    between atoms: _20  and  _21
REMARK   10  A    between atoms: _20  and  _23
REMARK   11  A    between atoms: _23  and  _24
REMARK   12  A    between atoms: _24  and  _25
REMARK   13  A    between atoms: _25  and  _26
REMARK   14  A    between atoms: _35  and  _37
REMARK   15  A    between atoms: _37  and  _38
REMARK   16  A    between atoms: _37  and  _40
REMARK   17  A    between atoms: _40  and  _41
REMARK   18  A    between atoms: _44  and  _46
REMARK   19  A    between atoms: _46  and  _47
REMARK   20  A    between atoms: _46  and  _49
REMARK   21  A    between atoms: _49  and  _50
REMARK   22  A    between atoms: _51  and  MN_357
REMARK   23  A    between atoms: _55  and  _57
REMARK   24  A    between atoms: _57  and  _58
REMARK   25  A    between atoms: _57  and  _60
REMARK   26  A    between atoms: _60  and  _61
REMARK   27  A    between atoms: _63  and  _65
REMARK   28  A    between atoms: _65  and  _66
REMARK   29  A    between atoms: _65  and  _68
REMARK   30  A    between atoms: _68  and  _69
REMARK   31  A    between atoms: _79  and  _81
REMARK   32  A    between atoms: _107  and  _110
REMARK   33  A    between atoms: _110  and  _111
REMARK   34  A    between atoms: _116  and  _117
REMARK   35  A    between atoms: _123  and  _125
REMARK   36  A    between atoms: _125  and  _126
REMARK   37  A    between atoms: _125  and  _128
REMARK   38  A    between atoms: _128  and  _129
REMARK   39  A    between atoms: _132  and  _134
REMARK   40  A    between atoms: _134  and  _135
REMARK   41  A    between atoms: _134  and  _137
REMARK   42  A    between atoms: _137  and  _138
REMARK   43  A    between atoms: _143  and  _145
REMARK   44  A    between atoms: _145  and  _146
REMARK   45  A    between atoms: _145  and  _148
REMARK   46  A    between atoms: _148  and  _149
REMARK   47  A    between atoms: _152  and  _154
REMARK   48  A    between atoms: _154  and  _155
REMARK   49  A    between atoms: _154  and  _157
REMARK   50  A    between atoms: _157  and  _158
REMARK   51  A    between atoms: _161  and  _163
REMARK   52  A    between atoms: _163  and  _164
REMARK   53  A    between atoms: _163  and  _166
REMARK   54  A    between atoms: _166  and  _167
REMARK   55  A    between atoms: _170  and  _172
REMARK   56  A    between atoms: _172  and  _173
REMARK   57  A    between atoms: _172  and  _175
REMARK   58  A    between atoms: _175  and  _176
REMARK   59  A    between atoms: _179  and  _181
REMARK   60  A    between atoms: _181  and  _182
REMARK   61  A    between atoms: _181  and  _184
REMARK   62  A    between atoms: _184  and  _185
REMARK   63  A    between atoms: _187  and  _189
REMARK   64  A    between atoms: _189  and  _190
REMARK   65  A    between atoms: _192  and  _194
REMARK   66  A    between atoms: _194  and  _195
REMARK   67  A    between atoms: _194  and  _197
REMARK   68  A    between atoms: _197  and  _198
REMARK   69  A    between atoms: _203  and  _205
REMARK   70  A    between atoms: _205  and  _206
REMARK   71  A    between atoms: _205  and  _208
REMARK   72  A    between atoms: _208  and  _209
REMARK   73  A    between atoms: _212  and  _214
REMARK   74  A    between atoms: _214  and  _215
REMARK   75  A    between atoms: _214  and  _217
REMARK   76  A    between atoms: _217  and  _218
REMARK   77  A    between atoms: _223  and  _225
REMARK   78  A    between atoms: _225  and  _226
REMARK   79  A    between atoms: _228  and  _230
REMARK   80  A    between atoms: _230  and  _231
REMARK   81  A    between atoms: _230  and  _233
REMARK   82  A    between atoms: _233  and  _234
REMARK   83  A    between atoms: _234  and  _235
REMARK   84  A    between atoms: _241  and  _242
REMARK   85  A    between atoms: _247  and  _249
REMARK   86  A    between atoms: _249  and  _250
REMARK   87  A    between atoms: _249  and  _252
REMARK   88  A    between atoms: _252  and  _253
REMARK   89  A    between atoms: _256  and  _258
REMARK   90  A    between atoms: _258  and  _259
REMARK   91  A    between atoms: _258  and  _261
REMARK   92  A    between atoms: _264  and  _266
REMARK   93  A    between atoms: _266  and  _267
REMARK   94  A    between atoms: _266  and  _269
REMARK   95  A    between atoms: _269  and  _270
REMARK   96  A    between atoms: _274  and  _275
REMARK   97  A    between atoms: _280  and  _282
REMARK   98  A    between atoms: _282  and  _283
REMARK   99  A    between atoms: _282  and  _285
REMARK  100  A    between atoms: _285  and  _286
REMARK  101  A    between atoms: _286  and  _287
REMARK  102  A    between atoms: _290  and  _292
REMARK  103  A    between atoms: _292  and  _293
REMARK  104  A    between atoms: _292  and  _295
REMARK  105  A    between atoms: _295  and  _296
REMARK  106  A    between atoms: _296  and  _298
REMARK  107  A    between atoms: _298  and  MN_357
REMARK  108  A    between atoms: _299  and  _301
REMARK  109  A    between atoms: _301  and  _302
REMARK  110  A    between atoms: _301  and  _304
REMARK  111  A    between atoms: _304  and  _305
REMARK  112  A    between atoms: _305  and  _306
REMARK  113  A    between atoms: _306  and  MN_356
REMARK  114  A    between atoms: _308  and  _310
REMARK  115  A    between atoms: _310  and  _311
REMARK  116  A    between atoms: _310  and  _313
REMARK  117  A    between atoms: _313  and  _314
REMARK  118  A    between atoms: _317  and  _319
REMARK  119  A    between atoms: _319  and  _320
REMARK  120  A    between atoms: _322  and  _324
REMARK  121  A    between atoms: _324  and  _325
REMARK  122  A    between atoms: _324  and  _327
REMARK  123  A    between atoms: _327  and  _328
REMARK  124  A    between atoms: _332  and  _333
REMARK  125  A    between atoms: _338  and  _340
REMARK  126  A    between atoms: _340  and  _341
REMARK  127  A    between atoms: _340  and  _343
REMARK  128  A    between atoms: _346  and  _348
REMARK  129  A    between atoms: _348  and  _349
REMARK  130  A    between atoms: _348  and  _351
REMARK  131  A    between atoms: _351  and  _352
REMARK  132  A    between atoms: _352  and  _353
REMARK                            x       y       z     vdW  Elec       q    Type
REMARK                         _______ _______ _______ _____ _____    ______ ____
ROOT
ATOM      1  O   HOH     1      31.710 -38.490   9.466  0.00  0.00    +0.000 OA
ENDROOT
TORSDOF 0
REMARK  Name = ../refined-set-2016/3lp4/3lp4_pocket.pdb
REMARK  132 active torsions:
REMARK  status: ('A' for Active; 'I' for Inactive)
REMARK    1  A    between atoms: _1  and  _3
REMARK    2  A    between atoms: _3  and  _4
REMARK    3  A    between atoms: _6  and  _8
REMARK    4  A    between atoms: _8  and  _9
REMARK    5  A    between atoms: _8  and  _11
REMARK    6  A    between atoms: _11  and  _12
REMARK    7  A    between atoms: _12  and  _13
REMARK    8  A    between atoms: _18  and  _20
REMARK    9  A    between atoms: _20  and  _21
REMARK   10  A    between atoms: _20  and  _23
REMARK   11  A    between atoms: _23  and  _24
REMARK   12  A    between atoms: _24  and  _25
REMARK   13  A    between atoms: _25  and  _26
REMARK   14  A    between atoms: _35  and  _37
REMARK   15  A    between atoms: _37  and  _38
REMARK   16  A    between atoms: _37  and  _40
REMARK   17  A    between atoms: _40  and  _41
REMARK   18  A    between atoms: _44  and  _46
REMARK   19  A    between atoms: _46  and  _47
REMARK   20  A    between atoms: _46  and  _49
REMARK   21  A    between atoms: _49  and  _50
REMARK   22  A    between atoms: _51  and  MN_357
REMARK   23  A    between atoms: _55  and  _57
REMARK   24  A    between atoms: _57  and  _58
REMARK   25  A    between atoms: _57  and  _60
REMARK   26  A    between atoms: _60  and  _61
REMARK   27  A    between atoms: _63  and  _65
REMARK   28  A    between atoms: _65  and  _66
REMARK   29  A    between atoms: _65  and  _68
REMARK   30  A    between atoms: _68  and  _69
REMARK   31  A    between atoms: _79  and  _81
REMARK   32  A    between atoms: _107  and  _110
REMARK   33  A    between atoms: _110  and  _111
REMARK   34  A    between atoms: _116  and  _117
REMARK   35  A    between atoms: _123  and  _125
REMARK   36  A    between atoms: _125  and  _126
REMARK   37  A    between atoms: _125  and  _128
REMARK   38  A    between atoms: _128  and  _129
REMARK   39  A    between atoms: _132  and  _134
REMARK   40  A    between atoms: _134  and  _135
REMARK   41  A    between atoms: _134  and  _137
REMARK   42  A    between atoms: _137  and  _138
REMARK   43  A    between atoms: _143  and  _145
REMARK   44  A    between atoms: _145  and  _146
REMARK   45  A    between atoms: _145  and  _148
REMARK   46  A    between atoms: _148  and  _149
REMARK   47  A    between atoms: _152  and  _154
REMARK   48  A    between atoms: _154  and  _155
REMARK   49  A    between atoms: _154  and  _157
REMARK   50  A    between atoms: _157  and  _158
REMARK   51  A    between atoms: _161  and  _163
REMARK   52  A    between atoms: _163  and  _164
REMARK   53  A    between atoms: _163  and  _166
REMARK   54  A    between atoms: _166  and  _167
REMARK   55  A    between atoms: _170  and  _172
REMARK   56  A    between atoms: _172  and  _173
REMARK   57  A    between atoms: _172  and  _175
REMARK   58  A    between atoms: _175  and  _176
REMARK   59  A    between atoms: _179  and  _181
REMARK   60  A    between atoms: _181  and  _182
REMARK   61  A    between atoms: _181  and  _184
REMARK   62  A    between atoms: _184  and  _185
REMARK   63  A    between atoms: _187  and  _189
REMARK   64  A    between atoms: _189  and  _190
REMARK   65  A    between atoms: _192  and  _194
REMARK   66  A    between atoms: _194  and  _195
REMARK   67  A    between atoms: _194  and  _197
REMARK   68  A    between atoms: _197  and  _198
REMARK   69  A    between atoms: _203  and  _205
REMARK   70  A    between atoms: _205  and  _206
REMARK   71  A    between atoms: _205  and  _208
REMARK   72  A    between atoms: _208  and  _209
REMARK   73  A    between atoms: _212  and  _214
REMARK   74  A    between atoms: _214  and  _215
REMARK   75  A    between atoms: _214  and  _217
REMARK   76  A    between atoms: _217  and  _218
REMARK   77  A    between atoms: _223  and  _225
REMARK   78  A    between atoms: _225  and  _226
REMARK   79  A    between atoms: _228  and  _230
REMARK   80  A    between atoms: _230  and  _231
REMARK   81  A    between atoms: _230  and  _233
REMARK   82  A    between atoms: _233  and  _234
REMARK   83  A    between atoms: _234  and  _235
REMARK   84  A    between atoms: _241  and  _242
REMARK   85  A    between atoms: _247  and  _249
REMARK   86  A    between atoms: _249  and  _250
REMARK   87  A    between atoms: _249  and  _252
REMARK   88  A    between atoms: _252  and  _253
REMARK   89  A    between atoms: _256  and  _258
REMARK   90  A    between atoms: _258  and  _259
REMARK   91  A    between atoms: _258  and  _261
REMARK   92  A    between atoms: _264  and  _266
REMARK   93  A    between atoms: _266  and  _267
REMARK   94  A    between atoms: _266  and  _269
REMARK   95  A    between atoms: _269  and  _270
REMARK   96  A    between atoms: _274  and  _275
REMARK   97  A    between atoms: _280  and  _282
REMARK   98  A    between atoms: _282  and  _283
REMARK   99  A    between atoms: _282  and  _285
REMARK  100  A    between atoms: _285  and  _286
REMARK  101  A    between atoms: _286  and  _287
REMARK  102  A    between atoms: _290  and  _292
REMARK  103  A    between atoms: _292  and  _293
REMARK  104  A    between atoms: _292  and  _295
REMARK  105  A    between atoms: _295  and  _296
REMARK  106  A    between atoms: _296  and  _298
REMARK  107  A    between atoms: _298  and  MN_357
REMARK  108  A    between atoms: _299  and  _301
REMARK  109  A    between atoms: _301  and  _302
REMARK  110  A    between atoms: _301  and  _304
REMARK  111  A    between atoms: _304  and  _305
REMARK  112  A    between atoms: _305  and  _306
REMARK  113  A    between atoms: _306  and  MN_356
REMARK  114  A    between atoms: _308  and  _310
REMARK  115  A    between atoms: _310  and  _311
REMARK  116  A    between atoms: _310  and  _313
REMARK  117  A    between atoms: _313  and  _314
REMARK  118  A    between atoms: _317  and  _319
REMARK  119  A    between atoms: _319  and  _320
REMARK  120  A    between atoms: _322  and  _324
REMARK  121  A    between atoms: _324  and  _325
REMARK  122  A    between atoms: _324  and  _327
REMARK  123  A    between atoms: _327  and  _328
REMARK  124  A    between atoms: _332  and  _333
REMARK  125  A    between atoms: _338  and  _340
REMARK  126  A    between atoms: _340  and  _341
REMARK  127  A    between atoms: _340  and  _343
REMARK  128  A    between atoms: _346  and  _348
REMARK  129  A    between atoms: _348  and  _349
REMARK  130  A    between atoms: _348  and  _351
REMARK  131  A    between atoms: _351  and  _352
REMARK  132  A    between atoms: _352  and  _353
REMARK                            x       y       z     vdW  Elec       q    Type
REMARK                         _______ _______ _______ _____ _____    ______ ____
ROOT
ATOM      1  O   HOH     1      24.766 -32.080  11.541  0.00  0.00    +0.000 OA
ENDROOT
TORSDOF 0
REMARK  Name = ../refined-set-2016/3lp4/3lp4_pocket.pdb
REMARK  132 active torsions:
REMARK  status: ('A' for Active; 'I' for Inactive)
REMARK    1  A    between atoms: _1  and  _3
REMARK    2  A    between atoms: _3  and  _4
REMARK    3  A    between atoms: _6  and  _8
REMARK    4  A    between atoms: _8  and  _9
REMARK    5  A    between atoms: _8  and  _11
REMARK    6  A    between atoms: _11  and  _12
REMARK    7  A    between atoms: _12  and  _13
REMARK    8  A    between atoms: _18  and  _20
REMARK    9  A    between atoms: _20  and  _21
REMARK   10  A    between atoms: _20  and  _23
REMARK   11  A    between atoms: _23  and  _24
REMARK   12  A    between atoms: _24  and  _25
REMARK   13  A    between atoms: _25  and  _26
REMARK   14  A    between atoms: _35  and  _37
REMARK   15  A    between atoms: _37  and  _38
REMARK   16  A    between atoms: _37  and  _40
REMARK   17  A    between atoms: _40  and  _41
REMARK   18  A    between atoms: _44  and  _46
REMARK   19  A    between atoms: _46  and  _47
REMARK   20  A    between atoms: _46  and  _49
REMARK   21  A    between atoms: _49  and  _50
REMARK   22  A    between atoms: _51  and  MN_357
REMARK   23  A    between atoms: _55  and  _57
REMARK   24  A    between atoms: _57  and  _58
REMARK   25  A    between atoms: _57  and  _60
REMARK   26  A    between atoms: _60  and  _61
REMARK   27  A    between atoms: _63  and  _65
REMARK   28  A    between atoms: _65  and  _66
REMARK   29  A    between atoms: _65  and  _68
REMARK   30  A    between atoms: _68  and  _69
REMARK   31  A    between atoms: _79  and  _81
REMARK   32  A    between atoms: _107  and  _110
REMARK   33  A    between atoms: _110  and  _111
REMARK   34  A    between atoms: _116  and  _117
REMARK   35  A    between atoms: _123  and  _125
REMARK   36  A    between atoms: _125  and  _126
REMARK   37  A    between atoms: _125  and  _128
REMARK   38  A    between atoms: _128  and  _129
REMARK   39  A    between atoms: _132  and  _134
REMARK   40  A    between atoms: _134  and  _135
REMARK   41  A    between atoms: _134  and  _137
REMARK   42  A    between atoms: _137  and  _138
REMARK   43  A    between atoms: _143  and  _145
REMARK   44  A    between atoms: _145  and  _146
REMARK   45  A    between atoms: _145  and  _148
REMARK   46  A    between atoms: _148  and  _149
REMARK   47  A    between atoms: _152  and  _154
REMARK   48  A    between atoms: _154  and  _155
REMARK   49  A    between atoms: _154  and  _157
REMARK   50  A    between atoms: _157  and  _158
REMARK   51  A    between atoms: _161  and  _163
REMARK   52  A    between atoms: _163  and  _164
REMARK   53  A    between atoms: _163  and  _166
REMARK   54  A    between atoms: _166  and  _167
REMARK   55  A    between atoms: _170  and  _172
REMARK   56  A    between atoms: _172  and  _173
REMARK   57  A    between atoms: _172  and  _175
REMARK   58  A    between atoms: _175  and  _176
REMARK   59  A    between atoms: _179  and  _181
REMARK   60  A    between atoms: _181  and  _182
REMARK   61  A    between atoms: _181  and  _184
REMARK   62  A    between atoms: _184  and  _185
REMARK   63  A    between atoms: _187  and  _189
REMARK   64  A    between atoms: _189  and  _190
REMARK   65  A    between atoms: _192  and  _194
REMARK   66  A    between atoms: _194  and  _195
REMARK   67  A    between atoms: _194  and  _197
REMARK   68  A    between atoms: _197  and  _198
REMARK   69  A    between atoms: _203  and  _205
REMARK   70  A    between atoms: _205  and  _206
REMARK   71  A    between atoms: _205  and  _208
REMARK   72  A    between atoms: _208  and  _209
REMARK   73  A    between atoms: _212  and  _214
REMARK   74  A    between atoms: _214  and  _215
REMARK   75  A    between atoms: _214  and  _217
REMARK   76  A    between atoms: _217  and  _218
REMARK   77  A    between atoms: _223  and  _225
REMARK   78  A    between atoms: _225  and  _226
REMARK   79  A    between atoms: _228  and  _230
REMARK   80  A    between atoms: _230  and  _231
REMARK   81  A    between atoms: _230  and  _233
REMARK   82  A    between atoms: _233  and  _234
REMARK   83  A    between atoms: _234  and  _235
REMARK   84  A    between atoms: _241  and  _242
REMARK   85  A    between atoms: _247  and  _249
REMARK   86  A    between atoms: _249  and  _250
REMARK   87  A    between atoms: _249  and  _252
REMARK   88  A    between atoms: _252  and  _253
REMARK   89  A    between atoms: _256  and  _258
REMARK   90  A    between atoms: _258  and  _259
REMARK   91  A    between atoms: _258  and  _261
REMARK   92  A    between atoms: _264  and  _266
REMARK   93  A    between atoms: _266  and  _267
REMARK   94  A    between atoms: _266  and  _269
REMARK   95  A    between atoms: _269  and  _270
REMARK   96  A    between atoms: _274  and  _275
REMARK   97  A    between atoms: _280  and  _282
REMARK   98  A    between atoms: _282  and  _283
REMARK   99  A    between atoms: _282  and  _285
REMARK  100  A    between atoms: _285  and  _286
REMARK  101  A    between atoms: _286  and  _287
REMARK  102  A    between atoms: _290  and  _292
REMARK  103  A    between atoms: _292  and  _293
REMARK  104  A    between atoms: _292  and  _295
REMARK  105  A    between atoms: _295  and  _296
REMARK  106  A    between atoms: _296  and  _298
REMARK  107  A    between atoms: _298  and  MN_357
REMARK  108  A    between atoms: _299  and  _301
REMARK  109  A    between atoms: _301  and  _302
REMARK  110  A    between atoms: _301  and  _304
REMARK  111  A    between atoms: _304  and  _305
REMARK  112  A    between atoms: _305  and  _306
REMARK  113  A    between atoms: _306  and  MN_356
REMARK  114  A    between atoms: _308  and  _310
REMARK  115  A    between atoms: _310  and  _311
REMARK  116  A    between atoms: _310  and  _313
REMARK  117  A    between atoms: _313  and  _314
REMARK  118  A    between atoms: _317  and  _319
REMARK  119  A    between atoms: _319  and  _320
REMARK  120  A    between atoms: _322  and  _324
REMARK  121  A    between atoms: _324  and  _325
REMARK  122  A    between atoms: _324  and  _327
REMARK  123  A    between atoms: _327  and  _328
REMARK  124  A    between atoms: _332  and  _333
REMARK  125  A    between atoms: _338  and  _340
REMARK  126  A    between atoms: _340  and  _341
REMARK  127  A    between atoms: _340  and  _343
REMARK  128  A    between atoms: _346  and  _348
REMARK  129  A    between atoms: _348  and  _349
REMARK  130  A    between atoms: _348  and  _351
REMARK  131  A    between atoms: _351  and  _352
REMARK  132  A    between atoms: _352  and  _353
REMARK                            x       y       z     vdW  Elec       q    Type
REMARK                         _______ _______ _______ _____ _____    ______ ____
ROOT
ATOM      1  O   HOH     1      27.307 -33.714   8.868  0.00  0.00    +0.000 OA
ENDROOT
TORSDOF 0
REMARK  Name = ../refined-set-2016/3lp4/3lp4_pocket.pdb
REMARK  132 active torsions:
REMARK  status: ('A' for Active; 'I' for Inactive)
REMARK    1  A    between atoms: _1  and  _3
REMARK    2  A    between atoms: _3  and  _4
REMARK    3  A    between atoms: _6  and  _8
REMARK    4  A    between atoms: _8  and  _9
REMARK    5  A    between atoms: _8  and  _11
REMARK    6  A    between atoms: _11  and  _12
REMARK    7  A    between atoms: _12  and  _13
REMARK    8  A    between atoms: _18  and  _20
REMARK    9  A    between atoms: _20  and  _21
REMARK   10  A    between atoms: _20  and  _23
REMARK   11  A    between atoms: _23  and  _24
REMARK   12  A    between atoms: _24  and  _25
REMARK   13  A    between atoms: _25  and  _26
REMARK   14  A    between atoms: _35  and  _37
REMARK   15  A    between atoms: _37  and  _38
REMARK   16  A    between atoms: _37  and  _40
REMARK   17  A    between atoms: _40  and  _41
REMARK   18  A    between atoms: _44  and  _46
REMARK   19  A    between atoms: _46  and  _47
REMARK   20  A    between atoms: _46  and  _49
REMARK   21  A    between atoms: _49  and  _50
REMARK   22  A    between atoms: _51  and  MN_357
REMARK   23  A    between atoms: _55  and  _57
REMARK   24  A    between atoms: _57  and  _58
REMARK   25  A    between atoms: _57  and  _60
REMARK   26  A    between atoms: _60  and  _61
REMARK   27  A    between atoms: _63  and  _65
REMARK   28  A    between atoms: _65  and  _66
REMARK   29  A    between atoms: _65  and  _68
REMARK   30  A    between atoms: _68  and  _69
REMARK   31  A    between atoms: _79  and  _81
REMARK   32  A    between atoms: _107  and  _110
REMARK   33  A    between atoms: _110  and  _111
REMARK   34  A    between atoms: _116  and  _117
REMARK   35  A    between atoms: _123  and  _125
REMARK   36  A    between atoms: _125  and  _126
REMARK   37  A    between atoms: _125  and  _128
REMARK   38  A    between atoms: _128  and  _129
REMARK   39  A    between atoms: _132  and  _134
REMARK   40  A    between atoms: _134  and  _135
REMARK   41  A    between atoms: _134  and  _137
REMARK   42  A    between atoms: _137  and  _138
REMARK   43  A    between atoms: _143  and  _145
REMARK   44  A    between atoms: _145  and  _146
REMARK   45  A    between atoms: _145  and  _148
REMARK   46  A    between atoms: _148  and  _149
REMARK   47  A    between atoms: _152  and  _154
REMARK   48  A    between atoms: _154  and  _155
REMARK   49  A    between atoms: _154  and  _157
REMARK   50  A    between atoms: _157  and  _158
REMARK   51  A    between atoms: _161  and  _163
REMARK   52  A    between atoms: _163  and  _164
REMARK   53  A    between atoms: _163  and  _166
REMARK   54  A    between atoms: _166  and  _167
REMARK   55  A    between atoms: _170  and  _172
REMARK   56  A    between atoms: _172  and  _173
REMARK   57  A    between atoms: _172  and  _175
REMARK   58  A    between atoms: _175  and  _176
REMARK   59  A    between atoms: _179  and  _181
REMARK   60  A    between atoms: _181  and  _182
REMARK   61  A    between atoms: _181  and  _184
REMARK   62  A    between atoms: _184  and  _185
REMARK   63  A    between atoms: _187  and  _189
REMARK   64  A    between atoms: _189  and  _190
REMARK   65  A    between atoms: _192  and  _194
REMARK   66  A    between atoms: _194  and  _195
REMARK   67  A    between atoms: _194  and  _197
REMARK   68  A    between atoms: _197  and  _198
REMARK   69  A    between atoms: _203  and  _205
REMARK   70  A    between atoms: _205  and  _206
REMARK   71  A    between atoms: _205  and  _208
REMARK   72  A    between atoms: _208  and  _209
REMARK   73  A    between atoms: _212  and  _214
REMARK   74  A    between atoms: _214  and  _215
REMARK   75  A    between atoms: _214  and  _217
REMARK   76  A    between atoms: _217  and  _218
REMARK   77  A    between atoms: _223  and  _225
REMARK   78  A    between atoms: _225  and  _226
REMARK   79  A    between atoms: _228  and  _230
REMARK   80  A    between atoms: _230  and  _231
REMARK   81  A    between atoms: _230  and  _233
REMARK   82  A    between atoms: _233  and  _234
REMARK   83  A    between atoms: _234  and  _235
REMARK   84  A    between atoms: _241  and  _242
REMARK   85  A    between atoms: _247  and  _249
REMARK   86  A    between atoms: _249  and  _250
REMARK   87  A    between atoms: _249  and  _252
REMARK   88  A    between atoms: _252  and  _253
REMARK   89  A    between atoms: _256  and  _258
REMARK   90  A    between atoms: _258  and  _259
REMARK   91  A    between atoms: _258  and  _261
REMARK   92  A    between atoms: _264  and  _266
REMARK   93  A    between atoms: _266  and  _267
REMARK   94  A    between atoms: _266  and  _269
REMARK   95  A    between atoms: _269  and  _270
REMARK   96  A    between atoms: _274  and  _275
REMARK   97  A    between atoms: _280  and  _282
REMARK   98  A    between atoms: _282  and  _283
REMARK   99  A    between atoms: _282  and  _285
REMARK  100  A    between atoms: _285  and  _286
REMARK  101  A    between atoms: _286  and  _287
REMARK  102  A    between atoms: _290  and  _292
REMARK  103  A    between atoms: _292  and  _293
REMARK  104  A    between atoms: _292  and  _295
REMARK  105  A    between atoms: _295  and  _296
REMARK  106  A    between atoms: _296  and  _298
REMARK  107  A    between atoms: _298  and  MN_357
REMARK  108  A    between atoms: _299  and  _301
REMARK  109  A    between atoms: _301  and  _302
REMARK  110  A    between atoms: _301  and  _304
REMARK  111  A    between atoms: _304  and  _305
REMARK  112  A    between atoms: _305  and  _306
REMARK  113  A    between atoms: _306  and  MN_356
REMARK  114  A    between atoms: _308  and  _310
REMARK  115  A    between atoms: _310  and  _311
REMARK  116  A    between atoms: _310  and  _313
REMARK  117  A    between atoms: _313  and  _314
REMARK  118  A    between atoms: _317  and  _319
REMARK  119  A    between atoms: _319  and  _320
REMARK  120  A    between atoms: _322  and  _324
REMARK  121  A    between atoms: _324  and  _325
REMARK  122  A    between atoms: _324  and  _327
REMARK  123  A    between atoms: _327  and  _328
REMARK  124  A    between atoms: _332  and  _333
REMARK  125  A    between atoms: _338  and  _340
REMARK  126  A    between atoms: _340  and  _341
REMARK  127  A    between atoms: _340  and  _343
REMARK  128  A    between atoms: _346  and  _348
REMARK  129  A    between atoms: _348  and  _349
REMARK  130  A    between atoms: _348  and  _351
REMARK  131  A    between atoms: _351  and  _352
REMARK  132  A    between atoms: _352  and  _353
REMARK                            x       y       z     vdW  Elec       q    Type
REMARK                         _______ _______ _______ _____ _____    ______ ____
ROOT
ATOM      1  O   HOH     1      23.969 -40.861   9.569  0.00  0.00    +0.000 OA
ENDROOT
TORSDOF 0
REMARK  Name = ../refined-set-2016/3lp4/3lp4_pocket.pdb
REMARK  132 active torsions:
REMARK  status: ('A' for Active; 'I' for Inactive)
REMARK    1  A    between atoms: _1  and  _3
REMARK    2  A    between atoms: _3  and  _4
REMARK    3  A    between atoms: _6  and  _8
REMARK    4  A    between atoms: _8  and  _9
REMARK    5  A    between atoms: _8  and  _11
REMARK    6  A    between atoms: _11  and  _12
REMARK    7  A    between atoms: _12  and  _13
REMARK    8  A    between atoms: _18  and  _20
REMARK    9  A    between atoms: _20  and  _21
REMARK   10  A    between atoms: _20  and  _23
REMARK   11  A    between atoms: _23  and  _24
REMARK   12  A    between atoms: _24  and  _25
REMARK   13  A    between atoms: _25  and  _26
REMARK   14  A    between atoms: _35  and  _37
REMARK   15  A    between atoms: _37  and  _38
REMARK   16  A    between atoms: _37  and  _40
REMARK   17  A    between atoms: _40  and  _41
REMARK   18  A    between atoms: _44  and  _46
REMARK   19  A    between atoms: _46  and  _47
REMARK   20  A    between atoms: _46  and  _49
REMARK   21  A    between atoms: _49  and  _50
REMARK   22  A    between atoms: _51  and  MN_357
REMARK   23  A    between atoms: _55  and  _57
REMARK   24  A    between atoms: _57  and  _58
REMARK   25  A    between atoms: _57  and  _60
REMARK   26  A    between atoms: _60  and  _61
REMARK   27  A    between atoms: _63  and  _65
REMARK   28  A    between atoms: _65  and  _66
REMARK   29  A    between atoms: _65  and  _68
REMARK   30  A    between atoms: _68  and  _69
REMARK   31  A    between atoms: _79  and  _81
REMARK   32  A    between atoms: _107  and  _110
REMARK   33  A    between atoms: _110  and  _111
REMARK   34  A    between atoms: _116  and  _117
REMARK   35  A    between atoms: _123  and  _125
REMARK   36  A    between atoms: _125  and  _126
REMARK   37  A    between atoms: _125  and  _128
REMARK   38  A    between atoms: _128  and  _129
REMARK   39  A    between atoms: _132  and  _134
REMARK   40  A    between atoms: _134  and  _135
REMARK   41  A    between atoms: _134  and  _137
REMARK   42  A    between atoms: _137  and  _138
REMARK   43  A    between atoms: _143  and  _145
REMARK   44  A    between atoms: _145  and  _146
REMARK   45  A    between atoms: _145  and  _148
REMARK   46  A    between atoms: _148  and  _149
REMARK   47  A    between atoms: _152  and  _154
REMARK   48  A    between atoms: _154  and  _155
REMARK   49  A    between atoms: _154  and  _157
REMARK   50  A    between atoms: _157  and  _158
REMARK   51  A    between atoms: _161  and  _163
REMARK   52  A    between atoms: _163  and  _164
REMARK   53  A    between atoms: _163  and  _166
REMARK   54  A    between atoms: _166  and  _167
REMARK   55  A    between atoms: _170  and  _172
REMARK   56  A    between atoms: _172  and  _173
REMARK   57  A    between atoms: _172  and  _175
REMARK   58  A    between atoms: _175  and  _176
REMARK   59  A    between atoms: _179  and  _181
REMARK   60  A    between atoms: _181  and  _182
REMARK   61  A    between atoms: _181  and  _184
REMARK   62  A    between atoms: _184  and  _185
REMARK   63  A    between atoms: _187  and  _189
REMARK   64  A    between atoms: _189  and  _190
REMARK   65  A    between atoms: _192  and  _194
REMARK   66  A    between atoms: _194  and  _195
REMARK   67  A    between atoms: _194  and  _197
REMARK   68  A    between atoms: _197  and  _198
REMARK   69  A    between atoms: _203  and  _205
REMARK   70  A    between atoms: _205  and  _206
REMARK   71  A    between atoms: _205  and  _208
REMARK   72  A    between atoms: _208  and  _209
REMARK   73  A    between atoms: _212  and  _214
REMARK   74  A    between atoms: _214  and  _215
REMARK   75  A    between atoms: _214  and  _217
REMARK   76  A    between atoms: _217  and  _218
REMARK   77  A    between atoms: _223  and  _225
REMARK   78  A    between atoms: _225  and  _226
REMARK   79  A    between atoms: _228  and  _230
REMARK   80  A    between atoms: _230  and  _231
REMARK   81  A    between atoms: _230  and  _233
REMARK   82  A    between atoms: _233  and  _234
REMARK   83  A    between atoms: _234  and  _235
REMARK   84  A    between atoms: _241  and  _242
REMARK   85  A    between atoms: _247  and  _249
REMARK   86  A    between atoms: _249  and  _250
REMARK   87  A    between atoms: _249  and  _252
REMARK   88  A    between atoms: _252  and  _253
REMARK   89  A    between atoms: _256  and  _258
REMARK   90  A    between atoms: _258  and  _259
REMARK   91  A    between atoms: _258  and  _261
REMARK   92  A    between atoms: _264  and  _266
REMARK   93  A    between atoms: _266  and  _267
REMARK   94  A    between atoms: _266  and  _269
REMARK   95  A    between atoms: _269  and  _270
REMARK   96  A    between atoms: _274  and  _275
REMARK   97  A    between atoms: _280  and  _282
REMARK   98  A    between atoms: _282  and  _283
REMARK   99  A    between atoms: _282  and  _285
REMARK  100  A    between atoms: _285  and  _286
REMARK  101  A    between atoms: _286  and  _287
REMARK  102  A    between atoms: _290  and  _292
REMARK  103  A    between atoms: _292  and  _293
REMARK  104  A    between atoms: _292  and  _295
REMARK  105  A    between atoms: _295  and  _296
REMARK  106  A    between atoms: _296  and  _298
REMARK  107  A    between atoms: _298  and  MN_357
REMARK  108  A    between atoms: _299  and  _301
REMARK  109  A    between atoms: _301  and  _302
REMARK  110  A    between atoms: _301  and  _304
REMARK  111  A    between atoms: _304  and  _305
REMARK  112  A    between atoms: _305  and  _306
REMARK  113  A    between atoms: _306  and  MN_356
REMARK  114  A    between atoms: _308  and  _310
REMARK  115  A    between atoms: _310  and  _311
REMARK  116  A    between atoms: _310  and  _313
REMARK  117  A    between atoms: _313  and  _314
REMARK  118  A    between atoms: _317  and  _319
REMARK  119  A    between atoms: _319  and  _320
REMARK  120  A    between atoms: _322  and  _324
REMARK  121  A    between atoms: _324  and  _325
REMARK  122  A    between atoms: _324  and  _327
REMARK  123  A    between atoms: _327  and  _328
REMARK  124  A    between atoms: _332  and  _333
REMARK  125  A    between atoms: _338  and  _340
REMARK  126  A    between atoms: _340  and  _341
REMARK  127  A    between atoms: _340  and  _343
REMARK  128  A    between atoms: _346  and  _348
REMARK  129  A    between atoms: _348  and  _349
REMARK  130  A    between atoms: _348  and  _351
REMARK  131  A    between atoms: _351  and  _352
REMARK  132  A    between atoms: _352  and  _353
REMARK                            x       y       z     vdW  Elec       q    Type
REMARK                         _______ _______ _______ _____ _____    ______ ____
ROOT
ATOM      1  O   HOH     1      25.311 -35.057   9.750  0.00  0.00    +0.000 OA
ENDROOT
TORSDOF 0
REMARK  Name = ../refined-set-2016/3lp4/3lp4_pocket.pdb
REMARK  132 active torsions:
REMARK  status: ('A' for Active; 'I' for Inactive)
REMARK    1  A    between atoms: _1  and  _3
REMARK    2  A    between atoms: _3  and  _4
REMARK    3  A    between atoms: _6  and  _8
REMARK    4  A    between atoms: _8  and  _9
REMARK    5  A    between atoms: _8  and  _11
REMARK    6  A    between atoms: _11  and  _12
REMARK    7  A    between atoms: _12  and  _13
REMARK    8  A    between atoms: _18  and  _20
REMARK    9  A    between atoms: _20  and  _21
REMARK   10  A    between atoms: _20  and  _23
REMARK   11  A    between atoms: _23  and  _24
REMARK   12  A    between atoms: _24  and  _25
REMARK   13  A    between atoms: _25  and  _26
REMARK   14  A    between atoms: _35  and  _37
REMARK   15  A    between atoms: _37  and  _38
REMARK   16  A    between atoms: _37  and  _40
REMARK   17  A    between atoms: _40  and  _41
REMARK   18  A    between atoms: _44  and  _46
REMARK   19  A    between atoms: _46  and  _47
REMARK   20  A    between atoms: _46  and  _49
REMARK   21  A    between atoms: _49  and  _50
REMARK   22  A    between atoms: _51  and  MN_357
REMARK   23  A    between atoms: _55  and  _57
REMARK   24  A    between atoms: _57  and  _58
REMARK   25  A    between atoms: _57  and  _60
REMARK   26  A    between atoms: _60  and  _61
REMARK   27  A    between atoms: _63  and  _65
REMARK   28  A    between atoms: _65  and  _66
REMARK   29  A    between atoms: _65  and  _68
REMARK   30  A    between atoms: _68  and  _69
REMARK   31  A    between atoms: _79  and  _81
REMARK   32  A    between atoms: _107  and  _110
REMARK   33  A    between atoms: _110  and  _111
REMARK   34  A    between atoms: _116  and  _117
REMARK   35  A    between atoms: _123  and  _125
REMARK   36  A    between atoms: _125  and  _126
REMARK   37  A    between atoms: _125  and  _128
REMARK   38  A    between atoms: _128  and  _129
REMARK   39  A    between atoms: _132  and  _134
REMARK   40  A    between atoms: _134  and  _135
REMARK   41  A    between atoms: _134  and  _137
REMARK   42  A    between atoms: _137  and  _138
REMARK   43  A    between atoms: _143  and  _145
REMARK   44  A    between atoms: _145  and  _146
REMARK   45  A    between atoms: _145  and  _148
REMARK   46  A    between atoms: _148  and  _149
REMARK   47  A    between atoms: _152  and  _154
REMARK   48  A    between atoms: _154  and  _155
REMARK   49  A    between atoms: _154  and  _157
REMARK   50  A    between atoms: _157  and  _158
REMARK   51  A    between atoms: _161  and  _163
REMARK   52  A    between atoms: _163  and  _164
REMARK   53  A    between atoms: _163  and  _166
REMARK   54  A    between atoms: _166  and  _167
REMARK   55  A    between atoms: _170  and  _172
REMARK   56  A    between atoms: _172  and  _173
REMARK   57  A    between atoms: _172  and  _175
REMARK   58  A    between atoms: _175  and  _176
REMARK   59  A    between atoms: _179  and  _181
REMARK   60  A    between atoms: _181  and  _182
REMARK   61  A    between atoms: _181  and  _184
REMARK   62  A    between atoms: _184  and  _185
REMARK   63  A    between atoms: _187  and  _189
REMARK   64  A    between atoms: _189  and  _190
REMARK   65  A    between atoms: _192  and  _194
REMARK   66  A    between atoms: _194  and  _195
REMARK   67  A    between atoms: _194  and  _197
REMARK   68  A    between atoms: _197  and  _198
REMARK   69  A    between atoms: _203  and  _205
REMARK   70  A    between atoms: _205  and  _206
REMARK   71  A    between atoms: _205  and  _208
REMARK   72  A    between atoms: _208  and  _209
REMARK   73  A    between atoms: _212  and  _214
REMARK   74  A    between atoms: _214  and  _215
REMARK   75  A    between atoms: _214  and  _217
REMARK   76  A    between atoms: _217  and  _218
REMARK   77  A    between atoms: _223  and  _225
REMARK   78  A    between atoms: _225  and  _226
REMARK   79  A    between atoms: _228  and  _230
REMARK   80  A    between atoms: _230  and  _231
REMARK   81  A    between atoms: _230  and  _233
REMARK   82  A    between atoms: _233  and  _234
REMARK   83  A    between atoms: _234  and  _235
REMARK   84  A    between atoms: _241  and  _242
REMARK   85  A    between atoms: _247  and  _249
REMARK   86  A    between atoms: _249  and  _250
REMARK   87  A    between atoms: _249  and  _252
REMARK   88  A    between atoms: _252  and  _253
REMARK   89  A    between atoms: _256  and  _258
REMARK   90  A    between atoms: _258  and  _259
REMARK   91  A    between atoms: _258  and  _261
REMARK   92  A    between atoms: _264  and  _266
REMARK   93  A    between atoms: _266  and  _267
REMARK   94  A    between atoms: _266  and  _269
REMARK   95  A    between atoms: _269  and  _270
REMARK   96  A    between atoms: _274  and  _275
REMARK   97  A    between atoms: _280  and  _282
REMARK   98  A    between atoms: _282  and  _283
REMARK   99  A    between atoms: _282  and  _285
REMARK  100  A    between atoms: _285  and  _286
REMARK  101  A    between atoms: _286  and  _287
REMARK  102  A    between atoms: _290  and  _292
REMARK  103  A    between atoms: _292  and  _293
REMARK  104  A    between atoms: _292  and  _295
REMARK  105  A    between atoms: _295  and  _296
REMARK  106  A    between atoms: _296  and  _298
REMARK  107  A    between atoms: _298  and  MN_357
REMARK  108  A    between atoms: _299  and  _301
REMARK  109  A    between atoms: _301  and  _302
REMARK  110  A    between atoms: _301  and  _304
REMARK  111  A    between atoms: _304  and  _305
REMARK  112  A    between atoms: _305  and  _306
REMARK  113  A    between atoms: _306  and  MN_356
REMARK  114  A    between atoms: _308  and  _310
REMARK  115  A    between atoms: _310  and  _311
REMARK  116  A    between atoms: _310  and  _313
REMARK  117  A    between atoms: _313  and  _314
REMARK  118  A    between atoms: _317  and  _319
REMARK  119  A    between atoms: _319  and  _320
REMARK  120  A    between atoms: _322  and  _324
REMARK  121  A    between atoms: _324  and  _325
REMARK  122  A    between atoms: _324  and  _327
REMARK  123  A    between atoms: _327  and  _328
REMARK  124  A    between atoms: _332  and  _333
REMARK  125  A    between atoms: _338  and  _340
REMARK  126  A    between atoms: _340  and  _341
REMARK  127  A    between atoms: _340  and  _343
REMARK  128  A    between atoms: _346  and  _348
REMARK  129  A    between atoms: _348  and  _349
REMARK  130  A    between atoms: _348  and  _351
REMARK  131  A    between atoms: _351  and  _352
REMARK  132  A    between atoms: _352  and  _353
REMARK                            x       y       z     vdW  Elec       q    Type
REMARK                         _______ _______ _______ _____ _____    ______ ____
ROOT
ATOM      1  O   HOH     1      23.700 -46.392   5.472  0.00  0.00    +0.000 OA
ENDROOT
TORSDOF 0
REMARK  Name = ../refined-set-2016/3lp4/3lp4_pocket.pdb
REMARK  132 active torsions:
REMARK  status: ('A' for Active; 'I' for Inactive)
REMARK    1  A    between atoms: _1  and  _3
REMARK    2  A    between atoms: _3  and  _4
REMARK    3  A    between atoms: _6  and  _8
REMARK    4  A    between atoms: _8  and  _9
REMARK    5  A    between atoms: _8  and  _11
REMARK    6  A    between atoms: _11  and  _12
REMARK    7  A    between atoms: _12  and  _13
REMARK    8  A    between atoms: _18  and  _20
REMARK    9  A    between atoms: _20  and  _21
REMARK   10  A    between atoms: _20  and  _23
REMARK   11  A    between atoms: _23  and  _24
REMARK   12  A    between atoms: _24  and  _25
REMARK   13  A    between atoms: _25  and  _26
REMARK   14  A    between atoms: _35  and  _37
REMARK   15  A    between atoms: _37  and  _38
REMARK   16  A    between atoms: _37  and  _40
REMARK   17  A    between atoms: _40  and  _41
REMARK   18  A    between atoms: _44  and  _46
REMARK   19  A    between atoms: _46  and  _47
REMARK   20  A    between atoms: _46  and  _49
REMARK   21  A    between atoms: _49  and  _50
REMARK   22  A    between atoms: _51  and  MN_357
REMARK   23  A    between atoms: _55  and  _57
REMARK   24  A    between atoms: _57  and  _58
REMARK   25  A    between atoms: _57  and  _60
REMARK   26  A    between atoms: _60  and  _61
REMARK   27  A    between atoms: _63  and  _65
REMARK   28  A    between atoms: _65  and  _66
REMARK   29  A    between atoms: _65  and  _68
REMARK   30  A    between atoms: _68  and  _69
REMARK   31  A    between atoms: _79  and  _81
REMARK   32  A    between atoms: _107  and  _110
REMARK   33  A    between atoms: _110  and  _111
REMARK   34  A    between atoms: _116  and  _117
REMARK   35  A    between atoms: _123  and  _125
REMARK   36  A    between atoms: _125  and  _126
REMARK   37  A    between atoms: _125  and  _128
REMARK   38  A    between atoms: _128  and  _129
REMARK   39  A    between atoms: _132  and  _134
REMARK   40  A    between atoms: _134  and  _135
REMARK   41  A    between atoms: _134  and  _137
REMARK   42  A    between atoms: _137  and  _138
REMARK   43  A    between atoms: _143  and  _145
REMARK   44  A    between atoms: _145  and  _146
REMARK   45  A    between atoms: _145  and  _148
REMARK   46  A    between atoms: _148  and  _149
REMARK   47  A    between atoms: _152  and  _154
REMARK   48  A    between atoms: _154  and  _155
REMARK   49  A    between atoms: _154  and  _157
REMARK   50  A    between atoms: _157  and  _158
REMARK   51  A    between atoms: _161  and  _163
REMARK   52  A    between atoms: _163  and  _164
REMARK   53  A    between atoms: _163  and  _166
REMARK   54  A    between atoms: _166  and  _167
REMARK   55  A    between atoms: _170  and  _172
REMARK   56  A    between atoms: _172  and  _173
REMARK   57  A    between atoms: _172  and  _175
REMARK   58  A    between atoms: _175  and  _176
REMARK   59  A    between atoms: _179  and  _181
REMARK   60  A    between atoms: _181  and  _182
REMARK   61  A    between atoms: _181  and  _184
REMARK   62  A    between atoms: _184  and  _185
REMARK   63  A    between atoms: _187  and  _189
REMARK   64  A    between atoms: _189  and  _190
REMARK   65  A    between atoms: _192  and  _194
REMARK   66  A    between atoms: _194  and  _195
REMARK   67  A    between atoms: _194  and  _197
REMARK   68  A    between atoms: _197  and  _198
REMARK   69  A    between atoms: _203  and  _205
REMARK   70  A    between atoms: _205  and  _206
REMARK   71  A    between atoms: _205  and  _208
REMARK   72  A    between atoms: _208  and  _209
REMARK   73  A    between atoms: _212  and  _214
REMARK   74  A    between atoms: _214  and  _215
REMARK   75  A    between atoms: _214  and  _217
REMARK   76  A    between atoms: _217  and  _218
REMARK   77  A    between atoms: _223  and  _225
REMARK   78  A    between atoms: _225  and  _226
REMARK   79  A    between atoms: _228  and  _230
REMARK   80  A    between atoms: _230  and  _231
REMARK   81  A    between atoms: _230  and  _233
REMARK   82  A    between atoms: _233  and  _234
REMARK   83  A    between atoms: _234  and  _235
REMARK   84  A    between atoms: _241  and  _242
REMARK   85  A    between atoms: _247  and  _249
REMARK   86  A    between atoms: _249  and  _250
REMARK   87  A    between atoms: _249  and  _252
REMARK   88  A    between atoms: _252  and  _253
REMARK   89  A    between atoms: _256  and  _258
REMARK   90  A    between atoms: _258  and  _259
REMARK   91  A    between atoms: _258  and  _261
REMARK   92  A    between atoms: _264  and  _266
REMARK   93  A    between atoms: _266  and  _267
REMARK   94  A    between atoms: _266  and  _269
REMARK   95  A    between atoms: _269  and  _270
REMARK   96  A    between atoms: _274  and  _275
REMARK   97  A    between atoms: _280  and  _282
REMARK   98  A    between atoms: _282  and  _283
REMARK   99  A    between atoms: _282  and  _285
REMARK  100  A    between atoms: _285  and  _286
REMARK  101  A    between atoms: _286  and  _287
REMARK  102  A    between atoms: _290  and  _292
REMARK  103  A    between atoms: _292  and  _293
REMARK  104  A    between atoms: _292  and  _295
REMARK  105  A    between atoms: _295  and  _296
REMARK  106  A    between atoms: _296  and  _298
REMARK  107  A    between atoms: _298  and  MN_357
REMARK  108  A    between atoms: _299  and  _301
REMARK  109  A    between atoms: _301  and  _302
REMARK  110  A    between atoms: _301  and  _304
REMARK  111  A    between atoms: _304  and  _305
REMARK  112  A    between atoms: _305  and  _306
REMARK  113  A    between atoms: _306  and  MN_356
REMARK  114  A    between atoms: _308  and  _310
REMARK  115  A    between atoms: _310  and  _311
REMARK  116  A    between atoms: _310  and  _313
REMARK  117  A    between atoms: _313  and  _314
REMARK  118  A    between atoms: _317  and  _319
REMARK  119  A    between atoms: _319  and  _320
REMARK  120  A    between atoms: _322  and  _324
REMARK  121  A    between atoms: _324  and  _325
REMARK  122  A    between atoms: _324  and  _327
REMARK  123  A    between atoms: _327  and  _328
REMARK  124  A    between atoms: _332  and  _333
REMARK  125  A    between atoms: _338  and  _340
REMARK  126  A    between atoms: _340  and  _341
REMARK  127  A    between atoms: _340  and  _343
REMARK  128  A    between atoms: _346  and  _348
REMARK  129  A    between atoms: _348  and  _349
REMARK  130  A    between atoms: _348  and  _351
REMARK  131  A    between atoms: _351  and  _352
REMARK  132  A    between atoms: _352  and  _353
REMARK                            x       y       z     vdW  Elec       q    Type
REMARK                         _______ _______ _______ _____ _____    ______ ____
ROOT
ATOM      1  O   HOH     1      23.091 -46.385  12.919  0.00  0.00    +0.000 OA
ENDROOT
TORSDOF 0
REMARK  Name = ../refined-set-2016/3lp4/3lp4_pocket.pdb
REMARK  132 active torsions:
REMARK  status: ('A' for Active; 'I' for Inactive)
REMARK    1  A    between atoms: _1  and  _3
REMARK    2  A    between atoms: _3  and  _4
REMARK    3  A    between atoms: _6  and  _8
REMARK    4  A    between atoms: _8  and  _9
REMARK    5  A    between atoms: _8  and  _11
REMARK    6  A    between atoms: _11  and  _12
REMARK    7  A    between atoms: _12  and  _13
REMARK    8  A    between atoms: _18  and  _20
REMARK    9  A    between atoms: _20  and  _21
REMARK   10  A    between atoms: _20  and  _23
REMARK   11  A    between atoms: _23  and  _24
REMARK   12  A    between atoms: _24  and  _25
REMARK   13  A    between atoms: _25  and  _26
REMARK   14  A    between atoms: _35  and  _37
REMARK   15  A    between atoms: _37  and  _38
REMARK   16  A    between atoms: _37  and  _40
REMARK   17  A    between atoms: _40  and  _41
REMARK   18  A    between atoms: _44  and  _46
REMARK   19  A    between atoms: _46  and  _47
REMARK   20  A    between atoms: _46  and  _49
REMARK   21  A    between atoms: _49  and  _50
REMARK   22  A    between atoms: _51  and  MN_357
REMARK   23  A    between atoms: _55  and  _57
REMARK   24  A    between atoms: _57  and  _58
REMARK   25  A    between atoms: _57  and  _60
REMARK   26  A    between atoms: _60  and  _61
REMARK   27  A    between atoms: _63  and  _65
REMARK   28  A    between atoms: _65  and  _66
REMARK   29  A    between atoms: _65  and  _68
REMARK   30  A    between atoms: _68  and  _69
REMARK   31  A    between atoms: _79  and  _81
REMARK   32  A    between atoms: _107  and  _110
REMARK   33  A    between atoms: _110  and  _111
REMARK   34  A    between atoms: _116  and  _117
REMARK   35  A    between atoms: _123  and  _125
REMARK   36  A    between atoms: _125  and  _126
REMARK   37  A    between atoms: _125  and  _128
REMARK   38  A    between atoms: _128  and  _129
REMARK   39  A    between atoms: _132  and  _134
REMARK   40  A    between atoms: _134  and  _135
REMARK   41  A    between atoms: _134  and  _137
REMARK   42  A    between atoms: _137  and  _138
REMARK   43  A    between atoms: _143  and  _145
REMARK   44  A    between atoms: _145  and  _146
REMARK   45  A    between atoms: _145  and  _148
REMARK   46  A    between atoms: _148  and  _149
REMARK   47  A    between atoms: _152  and  _154
REMARK   48  A    between atoms: _154  and  _155
REMARK   49  A    between atoms: _154  and  _157
REMARK   50  A    between atoms: _157  and  _158
REMARK   51  A    between atoms: _161  and  _163
REMARK   52  A    between atoms: _163  and  _164
REMARK   53  A    between atoms: _163  and  _166
REMARK   54  A    between atoms: _166  and  _167
REMARK   55  A    between atoms: _170  and  _172
REMARK   56  A    between atoms: _172  and  _173
REMARK   57  A    between atoms: _172  and  _175
REMARK   58  A    between atoms: _175  and  _176
REMARK   59  A    between atoms: _179  and  _181
REMARK   60  A    between atoms: _181  and  _182
REMARK   61  A    between atoms: _181  and  _184
REMARK   62  A    between atoms: _184  and  _185
REMARK   63  A    between atoms: _187  and  _189
REMARK   64  A    between atoms: _189  and  _190
REMARK   65  A    between atoms: _192  and  _194
REMARK   66  A    between atoms: _194  and  _195
REMARK   67  A    between atoms: _194  and  _197
REMARK   68  A    between atoms: _197  and  _198
REMARK   69  A    between atoms: _203  and  _205
REMARK   70  A    between atoms: _205  and  _206
REMARK   71  A    between atoms: _205  and  _208
REMARK   72  A    between atoms: _208  and  _209
REMARK   73  A    between atoms: _212  and  _214
REMARK   74  A    between atoms: _214  and  _215
REMARK   75  A    between atoms: _214  and  _217
REMARK   76  A    between atoms: _217  and  _218
REMARK   77  A    between atoms: _223  and  _225
REMARK   78  A    between atoms: _225  and  _226
REMARK   79  A    between atoms: _228  and  _230
REMARK   80  A    between atoms: _230  and  _231
REMARK   81  A    between atoms: _230  and  _233
REMARK   82  A    between atoms: _233  and  _234
REMARK   83  A    between atoms: _234  and  _235
REMARK   84  A    between atoms: _241  and  _242
REMARK   85  A    between atoms: _247  and  _249
REMARK   86  A    between atoms: _249  and  _250
REMARK   87  A    between atoms: _249  and  _252
REMARK   88  A    between atoms: _252  and  _253
REMARK   89  A    between atoms: _256  and  _258
REMARK   90  A    between atoms: _258  and  _259
REMARK   91  A    between atoms: _258  and  _261
REMARK   92  A    between atoms: _264  and  _266
REMARK   93  A    between atoms: _266  and  _267
REMARK   94  A    between atoms: _266  and  _269
REMARK   95  A    between atoms: _269  and  _270
REMARK   96  A    between atoms: _274  and  _275
REMARK   97  A    between atoms: _280  and  _282
REMARK   98  A    between atoms: _282  and  _283
REMARK   99  A    between atoms: _282  and  _285
REMARK  100  A    between atoms: _285  and  _286
REMARK  101  A    between atoms: _286  and  _287
REMARK  102  A    between atoms: _290  and  _292
REMARK  103  A    between atoms: _292  and  _293
REMARK  104  A    between atoms: _292  and  _295
REMARK  105  A    between atoms: _295  and  _296
REMARK  106  A    between atoms: _296  and  _298
REMARK  107  A    between atoms: _298  and  MN_357
REMARK  108  A    between atoms: _299  and  _301
REMARK  109  A    between atoms: _301  and  _302
REMARK  110  A    between atoms: _301  and  _304
REMARK  111  A    between atoms: _304  and  _305
REMARK  112  A    between atoms: _305  and  _306
REMARK  113  A    between atoms: _306  and  MN_356
REMARK  114  A    between atoms: _308  and  _310
REMARK  115  A    between atoms: _310  and  _311
REMARK  116  A    between atoms: _310  and  _313
REMARK  117  A    between atoms: _313  and  _314
REMARK  118  A    between atoms: _317  and  _319
REMARK  119  A    between atoms: _319  and  _320
REMARK  120  A    between atoms: _322  and  _324
REMARK  121  A    between atoms: _324  and  _325
REMARK  122  A    between atoms: _324  and  _327
REMARK  123  A    between atoms: _327  and  _328
REMARK  124  A    between atoms: _332  and  _333
REMARK  125  A    between atoms: _338  and  _340
REMARK  126  A    between atoms: _340  and  _341
REMARK  127  A    between atoms: _340  and  _343
REMARK  128  A    between atoms: _346  and  _348
REMARK  129  A    between atoms: _348  and  _349
REMARK  130  A    between atoms: _348  and  _351
REMARK  131  A    between atoms: _351  and  _352
REMARK  132  A    between atoms: _352  and  _353
REMARK                            x       y       z     vdW  Elec       q    Type
REMARK                         _______ _______ _______ _____ _____    ______ ____
ROOT
ATOM      1  O   HOH     1      20.693 -43.676   5.169  0.00  0.00    +0.000 OA
ENDROOT
TORSDOF 0
REMARK  Name = ../refined-set-2016/3lp4/3lp4_pocket.pdb
REMARK  132 active torsions:
REMARK  status: ('A' for Active; 'I' for Inactive)
REMARK    1  A    between atoms: _1  and  _3
REMARK    2  A    between atoms: _3  and  _4
REMARK    3  A    between atoms: _6  and  _8
REMARK    4  A    between atoms: _8  and  _9
REMARK    5  A    between atoms: _8  and  _11
REMARK    6  A    between atoms: _11  and  _12
REMARK    7  A    between atoms: _12  and  _13
REMARK    8  A    between atoms: _18  and  _20
REMARK    9  A    between atoms: _20  and  _21
REMARK   10  A    between atoms: _20  and  _23
REMARK   11  A    between atoms: _23  and  _24
REMARK   12  A    between atoms: _24  and  _25
REMARK   13  A    between atoms: _25  and  _26
REMARK   14  A    between atoms: _35  and  _37
REMARK   15  A    between atoms: _37  and  _38
REMARK   16  A    between atoms: _37  and  _40
REMARK   17  A    between atoms: _40  and  _41
REMARK   18  A    between atoms: _44  and  _46
REMARK   19  A    between atoms: _46  and  _47
REMARK   20  A    between atoms: _46  and  _49
REMARK   21  A    between atoms: _49  and  _50
REMARK   22  A    between atoms: _51  and  MN_357
REMARK   23  A    between atoms: _55  and  _57
REMARK   24  A    between atoms: _57  and  _58
REMARK   25  A    between atoms: _57  and  _60
REMARK   26  A    between atoms: _60  and  _61
REMARK   27  A    between atoms: _63  and  _65
REMARK   28  A    between atoms: _65  and  _66
REMARK   29  A    between atoms: _65  and  _68
REMARK   30  A    between atoms: _68  and  _69
REMARK   31  A    between atoms: _79  and  _81
REMARK   32  A    between atoms: _107  and  _110
REMARK   33  A    between atoms: _110  and  _111
REMARK   34  A    between atoms: _116  and  _117
REMARK   35  A    between atoms: _123  and  _125
REMARK   36  A    between atoms: _125  and  _126
REMARK   37  A    between atoms: _125  and  _128
REMARK   38  A    between atoms: _128  and  _129
REMARK   39  A    between atoms: _132  and  _134
REMARK   40  A    between atoms: _134  and  _135
REMARK   41  A    between atoms: _134  and  _137
REMARK   42  A    between atoms: _137  and  _138
REMARK   43  A    between atoms: _143  and  _145
REMARK   44  A    between atoms: _145  and  _146
REMARK   45  A    between atoms: _145  and  _148
REMARK   46  A    between atoms: _148  and  _149
REMARK   47  A    between atoms: _152  and  _154
REMARK   48  A    between atoms: _154  and  _155
REMARK   49  A    between atoms: _154  and  _157
REMARK   50  A    between atoms: _157  and  _158
REMARK   51  A    between atoms: _161  and  _163
REMARK   52  A    between atoms: _163  and  _164
REMARK   53  A    between atoms: _163  and  _166
REMARK   54  A    between atoms: _166  and  _167
REMARK   55  A    between atoms: _170  and  _172
REMARK   56  A    between atoms: _172  and  _173
REMARK   57  A    between atoms: _172  and  _175
REMARK   58  A    between atoms: _175  and  _176
REMARK   59  A    between atoms: _179  and  _181
REMARK   60  A    between atoms: _181  and  _182
REMARK   61  A    between atoms: _181  and  _184
REMARK   62  A    between atoms: _184  and  _185
REMARK   63  A    between atoms: _187  and  _189
REMARK   64  A    between atoms: _189  and  _190
REMARK   65  A    between atoms: _192  and  _194
REMARK   66  A    between atoms: _194  and  _195
REMARK   67  A    between atoms: _194  and  _197
REMARK   68  A    between atoms: _197  and  _198
REMARK   69  A    between atoms: _203  and  _205
REMARK   70  A    between atoms: _205  and  _206
REMARK   71  A    between atoms: _205  and  _208
REMARK   72  A    between atoms: _208  and  _209
REMARK   73  A    between atoms: _212  and  _214
REMARK   74  A    between atoms: _214  and  _215
REMARK   75  A    between atoms: _214  and  _217
REMARK   76  A    between atoms: _217  and  _218
REMARK   77  A    between atoms: _223  and  _225
REMARK   78  A    between atoms: _225  and  _226
REMARK   79  A    between atoms: _228  and  _230
REMARK   80  A    between atoms: _230  and  _231
REMARK   81  A    between atoms: _230  and  _233
REMARK   82  A    between atoms: _233  and  _234
REMARK   83  A    between atoms: _234  and  _235
REMARK   84  A    between atoms: _241  and  _242
REMARK   85  A    between atoms: _247  and  _249
REMARK   86  A    between atoms: _249  and  _250
REMARK   87  A    between atoms: _249  and  _252
REMARK   88  A    between atoms: _252  and  _253
REMARK   89  A    between atoms: _256  and  _258
REMARK   90  A    between atoms: _258  and  _259
REMARK   91  A    between atoms: _258  and  _261
REMARK   92  A    between atoms: _264  and  _266
REMARK   93  A    between atoms: _266  and  _267
REMARK   94  A    between atoms: _266  and  _269
REMARK   95  A    between atoms: _269  and  _270
REMARK   96  A    between atoms: _274  and  _275
REMARK   97  A    between atoms: _280  and  _282
REMARK   98  A    between atoms: _282  and  _283
REMARK   99  A    between atoms: _282  and  _285
REMARK  100  A    between atoms: _285  and  _286
REMARK  101  A    between atoms: _286  and  _287
REMARK  102  A    between atoms: _290  and  _292
REMARK  103  A    between atoms: _292  and  _293
REMARK  104  A    between atoms: _292  and  _295
REMARK  105  A    between atoms: _295  and  _296
REMARK  106  A    between atoms: _296  and  _298
REMARK  107  A    between atoms: _298  and  MN_357
REMARK  108  A    between atoms: _299  and  _301
REMARK  109  A    between atoms: _301  and  _302
REMARK  110  A    between atoms: _301  and  _304
REMARK  111  A    between atoms: _304  and  _305
REMARK  112  A    between atoms: _305  and  _306
REMARK  113  A    between atoms: _306  and  MN_356
REMARK  114  A    between atoms: _308  and  _310
REMARK  115  A    between atoms: _310  and  _311
REMARK  116  A    between atoms: _310  and  _313
REMARK  117  A    between atoms: _313  and  _314
REMARK  118  A    between atoms: _317  and  _319
REMARK  119  A    between atoms: _319  and  _320
REMARK  120  A    between atoms: _322  and  _324
REMARK  121  A    between atoms: _324  and  _325
REMARK  122  A    between atoms: _324  and  _327
REMARK  123  A    between atoms: _327  and  _328
REMARK  124  A    between atoms: _332  and  _333
REMARK  125  A    between atoms: _338  and  _340
REMARK  126  A    between atoms: _340  and  _341
REMARK  127  A    between atoms: _340  and  _343
REMARK  128  A    between atoms: _346  and  _348
REMARK  129  A    between atoms: _348  and  _349
REMARK  130  A    between atoms: _348  and  _351
REMARK  131  A    between atoms: _351  and  _352
REMARK  132  A    between atoms: _352  and  _353
REMARK                            x       y       z     vdW  Elec       q    Type
REMARK                         _______ _______ _______ _____ _____    ______ ____
ROOT
ATOM      1  O   HOH     1      23.914 -33.650  13.782  0.00  0.00    +0.000 OA
ENDROOT
TORSDOF 0
REMARK  Name = ../refined-set-2016/3lp4/3lp4_pocket.pdb
REMARK  132 active torsions:
REMARK  status: ('A' for Active; 'I' for Inactive)
REMARK    1  A    between atoms: _1  and  _3
REMARK    2  A    between atoms: _3  and  _4
REMARK    3  A    between atoms: _6  and  _8
REMARK    4  A    between atoms: _8  and  _9
REMARK    5  A    between atoms: _8  and  _11
REMARK    6  A    between atoms: _11  and  _12
REMARK    7  A    between atoms: _12  and  _13
REMARK    8  A    between atoms: _18  and  _20
REMARK    9  A    between atoms: _20  and  _21
REMARK   10  A    between atoms: _20  and  _23
REMARK   11  A    between atoms: _23  and  _24
REMARK   12  A    between atoms: _24  and  _25
REMARK   13  A    between atoms: _25  and  _26
REMARK   14  A    between atoms: _35  and  _37
REMARK   15  A    between atoms: _37  and  _38
REMARK   16  A    between atoms: _37  and  _40
REMARK   17  A    between atoms: _40  and  _41
REMARK   18  A    between atoms: _44  and  _46
REMARK   19  A    between atoms: _46  and  _47
REMARK   20  A    between atoms: _46  and  _49
REMARK   21  A    between atoms: _49  and  _50
REMARK   22  A    between atoms: _51  and  MN_357
REMARK   23  A    between atoms: _55  and  _57
REMARK   24  A    between atoms: _57  and  _58
REMARK   25  A    between atoms: _57  and  _60
REMARK   26  A    between atoms: _60  and  _61
REMARK   27  A    between atoms: _63  and  _65
REMARK   28  A    between atoms: _65  and  _66
REMARK   29  A    between atoms: _65  and  _68
REMARK   30  A    between atoms: _68  and  _69
REMARK   31  A    between atoms: _79  and  _81
REMARK   32  A    between atoms: _107  and  _110
REMARK   33  A    between atoms: _110  and  _111
REMARK   34  A    between atoms: _116  and  _117
REMARK   35  A    between atoms: _123  and  _125
REMARK   36  A    between atoms: _125  and  _126
REMARK   37  A    between atoms: _125  and  _128
REMARK   38  A    between atoms: _128  and  _129
REMARK   39  A    between atoms: _132  and  _134
REMARK   40  A    between atoms: _134  and  _135
REMARK   41  A    between atoms: _134  and  _137
REMARK   42  A    between atoms: _137  and  _138
REMARK   43  A    between atoms: _143  and  _145
REMARK   44  A    between atoms: _145  and  _146
REMARK   45  A    between atoms: _145  and  _148
REMARK   46  A    between atoms: _148  and  _149
REMARK   47  A    between atoms: _152  and  _154
REMARK   48  A    between atoms: _154  and  _155
REMARK   49  A    between atoms: _154  and  _157
REMARK   50  A    between atoms: _157  and  _158
REMARK   51  A    between atoms: _161  and  _163
REMARK   52  A    between atoms: _163  and  _164
REMARK   53  A    between atoms: _163  and  _166
REMARK   54  A    between atoms: _166  and  _167
REMARK   55  A    between atoms: _170  and  _172
REMARK   56  A    between atoms: _172  and  _173
REMARK   57  A    between atoms: _172  and  _175
REMARK   58  A    between atoms: _175  and  _176
REMARK   59  A    between atoms: _179  and  _181
REMARK   60  A    between atoms: _181  and  _182
REMARK   61  A    between atoms: _181  and  _184
REMARK   62  A    between atoms: _184  and  _185
REMARK   63  A    between atoms: _187  and  _189
REMARK   64  A    between atoms: _189  and  _190
REMARK   65  A    between atoms: _192  and  _194
REMARK   66  A    between atoms: _194  and  _195
REMARK   67  A    between atoms: _194  and  _197
REMARK   68  A    between atoms: _197  and  _198
REMARK   69  A    between atoms: _203  and  _205
REMARK   70  A    between atoms: _205  and  _206
REMARK   71  A    between atoms: _205  and  _208
REMARK   72  A    between atoms: _208  and  _209
REMARK   73  A    between atoms: _212  and  _214
REMARK   74  A    between atoms: _214  and  _215
REMARK   75  A    between atoms: _214  and  _217
REMARK   76  A    between atoms: _217  and  _218
REMARK   77  A    between atoms: _223  and  _225
REMARK   78  A    between atoms: _225  and  _226
REMARK   79  A    between atoms: _228  and  _230
REMARK   80  A    between atoms: _230  and  _231
REMARK   81  A    between atoms: _230  and  _233
REMARK   82  A    between atoms: _233  and  _234
REMARK   83  A    between atoms: _234  and  _235
REMARK   84  A    between atoms: _241  and  _242
REMARK   85  A    between atoms: _247  and  _249
REMARK   86  A    between atoms: _249  and  _250
REMARK   87  A    between atoms: _249  and  _252
REMARK   88  A    between atoms: _252  and  _253
REMARK   89  A    between atoms: _256  and  _258
REMARK   90  A    between atoms: _258  and  _259
REMARK   91  A    between atoms: _258  and  _261
REMARK   92  A    between atoms: _264  and  _266
REMARK   93  A    between atoms: _266  and  _267
REMARK   94  A    between atoms: _266  and  _269
REMARK   95  A    between atoms: _269  and  _270
REMARK   96  A    between atoms: _274  and  _275
REMARK   97  A    between atoms: _280  and  _282
REMARK   98  A    between atoms: _282  and  _283
REMARK   99  A    between atoms: _282  and  _285
REMARK  100  A    between atoms: _285  and  _286
REMARK  101  A    between atoms: _286  and  _287
REMARK  102  A    between atoms: _290  and  _292
REMARK  103  A    between atoms: _292  and  _293
REMARK  104  A    between atoms: _292  and  _295
REMARK  105  A    between atoms: _295  and  _296
REMARK  106  A    between atoms: _296  and  _298
REMARK  107  A    between atoms: _298  and  MN_357
REMARK  108  A    between atoms: _299  and  _301
REMARK  109  A    between atoms: _301  and  _302
REMARK  110  A    between atoms: _301  and  _304
REMARK  111  A    between atoms: _304  and  _305
REMARK  112  A    between atoms: _305  and  _306
REMARK  113  A    between atoms: _306  and  MN_356
REMARK  114  A    between atoms: _308  and  _310
REMARK  115  A    between atoms: _310  and  _311
REMARK  116  A    between atoms: _310  and  _313
REMARK  117  A    between atoms: _313  and  _314
REMARK  118  A    between atoms: _317  and  _319
REMARK  119  A    between atoms: _319  and  _320
REMARK  120  A    between atoms: _322  and  _324
REMARK  121  A    between atoms: _324  and  _325
REMARK  122  A    between atoms: _324  and  _327
REMARK  123  A    between atoms: _327  and  _328
REMARK  124  A    between atoms: _332  and  _333
REMARK  125  A    between atoms: _338  and  _340
REMARK  126  A    between atoms: _340  and  _341
REMARK  127  A    between atoms: _340  and  _343
REMARK  128  A    between atoms: _346  and  _348
REMARK  129  A    between atoms: _348  and  _349
REMARK  130  A    between atoms: _348  and  _351
REMARK  131  A    between atoms: _351  and  _352
REMARK  132  A    between atoms: _352  and  _353
REMARK                            x       y       z     vdW  Elec       q    Type
REMARK                         _______ _______ _______ _____ _____    ______ ____
ROOT
ATOM      1  O   HOH     1      28.943 -42.973   3.643  0.00  0.00    +0.000 OA
ENDROOT
TORSDOF 0
