REMARK  Name = ../refined-set-2016/3afk/3afk_pocket.pdb
REMARK  119 active torsions:
REMARK  status: ('A' for Active; 'I' for Inactive)
REMARK    1  A    between atoms: _1  and  _3
REMARK    2  A    between atoms: _3  and  _4
REMARK    3  A    between atoms: _6  and  _8
REMARK    4  A    between atoms: _8  and  _9
REMARK    5  A    between atoms: _8  and  _11
REMARK    6  A    between atoms: _11  and  _12
REMARK    7  A    between atoms: _18  and  _19
REMARK    8  A    between atoms: _24  and  _26
REMARK    9  A    between atoms: _26  and  _27
REMARK   10  A    between atoms: _26  and  _29
REMARK   11  A    between atoms: _29  and  _30
REMARK   12  A    between atoms: _35  and  _37
REMARK   13  A    between atoms: _37  and  _38
REMARK   14  A    between atoms: _37  and  _40
REMARK   15  A    between atoms: _40  and  _41
REMARK   16  A    between atoms: _46  and  _48
REMARK   17  A    between atoms: _48  and  _49
REMARK   18  A    between atoms: _48  and  _51
REMARK   19  A    between atoms: _51  and  _52
REMARK   20  A    between atoms: _55  and  _57
REMARK   21  A    between atoms: _57  and  _58
REMARK   22  A    between atoms: _57  and  _60
REMARK   23  A    between atoms: _60  and  _61
REMARK   24  A    between atoms: _64  and  _66
REMARK   25  A    between atoms: _66  and  _67
REMARK   26  A    between atoms: _66  and  _69
REMARK   27  A    between atoms: _69  and  _70
REMARK   28  A    between atoms: _75  and  _77
REMARK   29  A    between atoms: _77  and  _78
REMARK   30  A    between atoms: _77  and  _80
REMARK   31  A    between atoms: _80  and  _81
REMARK   32  A    between atoms: _86  and  _87
REMARK   33  A    between atoms: _89  and  _91
REMARK   34  A    between atoms: _91  and  _92
REMARK   35  A    between atoms: _91  and  _94
REMARK   36  A    between atoms: _94  and  _95
REMARK   37  A    between atoms: _100  and  _102
REMARK   38  A    between atoms: _102  and  _103
REMARK   39  A    between atoms: _102  and  _105
REMARK   40  A    between atoms: _105  and  _106
REMARK   41  A    between atoms: _109  and  _111
REMARK   42  A    between atoms: _111  and  _112
REMARK   43  A    between atoms: _115  and  _117
REMARK   44  A    between atoms: _117  and  _118
REMARK   45  A    between atoms: _117  and  _120
REMARK   46  A    between atoms: _120  and  _121
REMARK   47  A    between atoms: _127  and  _129
REMARK   48  A    between atoms: _129  and  _130
REMARK   49  A    between atoms: _129  and  _132
REMARK   50  A    between atoms: _132  and  _133
REMARK   51  A    between atoms: _133  and  _134
REMARK   52  A    between atoms: _134  and  _135
REMARK   53  A    between atoms: _144  and  _146
REMARK   54  A    between atoms: _146  and  _147
REMARK   55  A    between atoms: _146  and  _149
REMARK   56  A    between atoms: _149  and  _150
REMARK   57  A    between atoms: _150  and  _151
REMARK   58  A    between atoms: _154  and  _156
REMARK   59  A    between atoms: _156  and  _157
REMARK   60  A    between atoms: _156  and  _159
REMARK   61  A    between atoms: _162  and  _164
REMARK   62  A    between atoms: _164  and  _165
REMARK   63  A    between atoms: _164  and  _167
REMARK   64  A    between atoms: _167  and  _168
REMARK   65  A    between atoms: _171  and  _173
REMARK   66  A    between atoms: _173  and  _174
REMARK   67  A    between atoms: _173  and  _176
REMARK   68  A    between atoms: _176  and  _177
REMARK   69  A    between atoms: _183  and  _185
REMARK   70  A    between atoms: _185  and  _186
REMARK   71  A    between atoms: _185  and  _188
REMARK   72  A    between atoms: _188  and  _189
REMARK   73  A    between atoms: _194  and  _196
REMARK   74  A    between atoms: _196  and  _197
REMARK   75  A    between atoms: _196  and  _199
REMARK   76  A    between atoms: _199  and  _200
REMARK   77  A    between atoms: _202  and  _204
REMARK   78  A    between atoms: _204  and  _205
REMARK   79  A    between atoms: _204  and  _207
REMARK   80  A    between atoms: _207  and  _208
REMARK   81  A    between atoms: _208  and  _209
REMARK   82  A    between atoms: _209  and  _210
REMARK   83  A    between atoms: _220  and  _221
REMARK   84  A    between atoms: _226  and  _228
REMARK   85  A    between atoms: _228  and  _229
REMARK   86  A    between atoms: _228  and  _231
REMARK   87  A    between atoms: _231  and  _232
REMARK   88  A    between atoms: _242  and  _244
REMARK   89  A    between atoms: _244  and  _245
REMARK   90  A    between atoms: _244  and  _247
REMARK   91  A    between atoms: _247  and  _248
REMARK   92  A    between atoms: _251  and  _253
REMARK   93  A    between atoms: _253  and  _254
REMARK   94  A    between atoms: _253  and  _256
REMARK   95  A    between atoms: _259  and  _261
REMARK   96  A    between atoms: _261  and  _262
REMARK   97  A    between atoms: _261  and  _264
REMARK   98  A    between atoms: _264  and  _265
REMARK   99  A    between atoms: _265  and  _266
REMARK  100  A    between atoms: _269  and  _271
REMARK  101  A    between atoms: _271  and  _272
REMARK  102  A    between atoms: _271  and  _274
REMARK  103  A    between atoms: _274  and  _275
REMARK  104  A    between atoms: _275  and  _276
REMARK  105  A    between atoms: _281  and  _283
REMARK  106  A    between atoms: _283  and  _284
REMARK  107  A    between atoms: _283  and  _286
REMARK  108  A    between atoms: _286  and  _287
REMARK  109  A    between atoms: _287  and  _288
REMARK  110  A    between atoms: _288  and  _289
REMARK  111  A    between atoms: _298  and  _300
REMARK  112  A    between atoms: _300  and  _301
REMARK  113  A    between atoms: _300  and  _303
REMARK  114  A    between atoms: _303  and  _304
REMARK  115  A    between atoms: _304  and  _305
REMARK  116  A    between atoms: _310  and  _312
REMARK  117  A    between atoms: _312  and  _313
REMARK  118  A    between atoms: _312  and  _315
REMARK  119  A    between atoms: _315  and  _316
REMARK                            x       y       z     vdW  Elec       q    Type
REMARK                         _______ _______ _______ _____ _____    ______ ____
ROOT
ATOM      1  CA  ASN A   4       6.461   7.899 -15.577  0.00  0.00    +0.158 C 
ENDROOT
BRANCH   1   3
ATOM      2  C   PRO A   3       5.906   6.893 -17.717  0.00  0.00    +0.241 C 
ATOM      3  N   ASN A   4       6.488   7.873 -17.033  0.00  0.00    -0.297 N 
ATOM      4  H   ASN A   4       6.972   8.636 -17.548  0.00  0.00    +0.150 HD
ATOM      5  O   PRO A   3       5.312   5.960 -17.174  0.00  0.00    -0.273 OA
BRANCH   2   8
ATOM      6  C   ASN A   2       6.036   9.351 -20.061  0.00  0.00    +0.244 C 
ATOM      7  N   PRO A   3       6.643   8.209 -19.698  0.00  0.00    -0.272 N 
ATOM      8  CA  PRO A   3       6.021   6.965 -19.238  0.00  0.00    +0.152 C 
ATOM      9  CB  PRO A   3       6.966   5.906 -19.779  0.00  0.00    +0.031 C 
ATOM     10  CG  PRO A   3       8.304   6.557 -19.553  0.00  0.00    +0.024 C 
ATOM     11  CD  PRO A   3       8.070   7.991 -20.011  0.00  0.00    +0.094 C 
ATOM     12  O   ASN A   2       6.675  10.328 -20.452  0.00  0.00    -0.273 OA
BRANCH   6  13
ATOM     13  CA  ASN A   2       4.513   9.399 -20.002  0.00  0.00    +0.158 C 
BRANCH  13  15
ATOM     14  C   GLY A   1       2.968   8.248 -18.544  0.00  0.00    +0.240 C 
ATOM     15  N   ASN A   2       3.936   9.146 -18.687  0.00  0.00    -0.297 N 
ATOM     16  H   ASN A   2       4.283   9.670 -17.859  0.00  0.00    +0.150 HD
ATOM     17  O   GLY A   1       2.538   7.579 -19.487  0.00  0.00    -0.274 OA
BRANCH  14  18
ATOM     18  CA  GLY A   1       2.390   8.045 -17.159  0.00  0.00    +0.169 C 
BRANCH  18  19
ATOM     19  N   GLY A   1       1.239   7.190 -17.362  0.00  0.00    -0.236 NA
ATOM     20  H   GLY A   1       1.348   6.159 -17.275  0.00  0.00    +0.142 HD
ENDBRANCH  18  19
ENDBRANCH  14  18
ENDBRANCH  13  15
BRANCH  13  21
ATOM     21  CB  ASN A   2       4.033  10.758 -20.516  0.00  0.00    +0.114 C 
BRANCH  21  22
ATOM     22  CG  ASN A   2       4.375  11.900 -19.567  0.00  0.00    +0.222 C 
ATOM     23  ND2 ASN A   2       4.997  11.575 -18.435  0.00  0.00    -0.329 N 
ATOM     24 HD21 ASN A   2       5.252  12.316 -17.751  0.00  0.00    +0.145 HD
ATOM     25 HD22 ASN A   2       5.227  10.581 -18.235  0.00  0.00    +0.145 HD
ATOM     26  OD1 ASN A   2       4.080  13.062 -19.851  0.00  0.00    -0.275 OA
ENDBRANCH  21  22
ENDBRANCH  13  21
ENDBRANCH   6  13
ENDBRANCH   2   8
ENDBRANCH   1   3
BRANCH   1  27
ATOM     27  C   ASN A   4       5.226   8.581 -15.011  0.00  0.00    +0.241 C 
ATOM     28  N   ASN A   5       4.662   7.984 -13.966  0.00  0.00    -0.297 N 
ATOM     29  H   ASN A   5       5.061   7.089 -13.618  0.00  0.00    +0.150 HD
ATOM     30  O   ASN A   4       4.794   9.619 -15.507  0.00  0.00    -0.273 OA
BRANCH  28  31
ATOM     31  CA  ASN A   5       3.501   8.549 -13.296  0.00  0.00    +0.158 C 
BRANCH  31  32
ATOM     32  C   ASN A   5       4.042   9.445 -12.200  0.00  0.00    +0.241 C 
ATOM     33  N   THR A   6       5.079   8.943 -11.539  0.00  0.00    -0.295 N 
ATOM     34  H   THR A   6       5.450   8.015 -11.828  0.00  0.00    +0.150 HD
ATOM     35  O   ASN A   5       3.544  10.545 -11.965  0.00  0.00    -0.273 OA
BRANCH  33  36
ATOM     36  CA  THR A   6       5.720   9.631 -10.429  0.00  0.00    +0.176 C 
BRANCH  36  37
ATOM     37  C   THR A   6       7.185   9.235 -10.370  0.00  0.00    +0.243 C 
ATOM     38  N   THR A   7       8.032  10.178  -9.968  0.00  0.00    -0.296 N 
ATOM     39  H   THR A   7       7.672  11.133  -9.768  0.00  0.00    +0.150 HD
ATOM     40  O   THR A   6       7.540   8.102 -10.703  0.00  0.00    -0.273 OA
BRANCH  38  41
ATOM     41  CA  THR A   7       9.453   9.902  -9.802  0.00  0.00    +0.164 C 
BRANCH  41  42
ATOM     42  CB  THR A   7      10.350  10.491 -10.938  0.00  0.00    +0.136 C 
ATOM     43  CG2 THR A   7       9.835  10.089 -12.309  0.00  0.00    +0.034 C 
BRANCH  42  44
ATOM     44  OG1 THR A   7      10.389  11.919 -10.838  0.00  0.00    -0.382 OA
ATOM     45  HG1 THR A   7      10.764  12.177  -9.959  0.00  0.00    +0.210 HD
ENDBRANCH  42  44
ENDBRANCH  41  42
BRANCH  41  46
ATOM     46  C   THR A   7       9.877  10.551  -8.495  0.00  0.00    +0.229 C 
ATOM     47  O   THR A   7       9.387  11.619  -8.135  0.00  0.00    -0.286 OA
ENDBRANCH  41  46
ENDBRANCH  38  41
ENDBRANCH  36  37
BRANCH  36  48
ATOM     48  CB  THR A   6       5.072   9.216  -9.075  0.00  0.00    +0.137 C 
ATOM     49  CG2 THR A   6       5.843   9.803  -7.900  0.00  0.00    +0.034 C 
BRANCH  48  50
ATOM     50  OG1 THR A   6       3.713   9.661  -9.030  0.00  0.00    -0.382 OA
ATOM     51  HG1 THR A   6       3.687  10.647  -9.117  0.00  0.00    +0.210 HD
ENDBRANCH  48  50
ENDBRANCH  36  48
ENDBRANCH  33  36
ENDBRANCH  31  32
BRANCH  31  52
ATOM     52  CB  ASN A   5       2.664   7.446 -12.646  0.00  0.00    +0.114 C 
BRANCH  52  53
ATOM     53  CG  ASN A   5       1.752   6.751 -13.629  0.00  0.00    +0.222 C 
ATOM     54  OD1 ASN A   5       0.628   7.198 -13.876  0.00  0.00    -0.275 OA
ATOM     55  ND2 ASN A   5       2.231   5.657 -14.204  0.00  0.00    -0.329 N 
ATOM     56 HD21 ASN A   5       3.185   5.318 -13.964  0.00  0.00    +0.145 HD
ATOM     57 HD22 ASN A   5       1.653   5.137 -14.895  0.00  0.00    +0.145 HD
ENDBRANCH  52  53
ENDBRANCH  31  52
ENDBRANCH  28  31
ENDBRANCH   1  27
BRANCH   1  58
ATOM     58  CB  ASN A   4       7.702   8.614 -15.026  0.00  0.00    +0.114 C 
BRANCH  58  59
ATOM     59  CG  ASN A   4       8.996   7.982 -15.489  0.00  0.00    +0.222 C 
ATOM     60  OD1 ASN A   4       9.121   6.757 -15.527  0.00  0.00    -0.275 OA
ATOM     61  ND2 ASN A   4       9.982   8.817 -15.821  0.00  0.00    -0.329 N 
ATOM     62 HD21 ASN A   4       9.831   9.845 -15.774  0.00  0.00    +0.145 HD
ATOM     63 HD22 ASN A   4      10.902   8.440 -16.127  0.00  0.00    +0.145 HD
ENDBRANCH  58  59
ENDBRANCH   1  58
TORSDOF 23
REMARK  Name = ../refined-set-2016/3afk/3afk_pocket.pdb
REMARK  119 active torsions:
REMARK  status: ('A' for Active; 'I' for Inactive)
REMARK    1  A    between atoms: _1  and  _3
REMARK    2  A    between atoms: _3  and  _4
REMARK    3  A    between atoms: _6  and  _8
REMARK    4  A    between atoms: _8  and  _9
REMARK    5  A    between atoms: _8  and  _11
REMARK    6  A    between atoms: _11  and  _12
REMARK    7  A    between atoms: _18  and  _19
REMARK    8  A    between atoms: _24  and  _26
REMARK    9  A    between atoms: _26  and  _27
REMARK   10  A    between atoms: _26  and  _29
REMARK   11  A    between atoms: _29  and  _30
REMARK   12  A    between atoms: _35  and  _37
REMARK   13  A    between atoms: _37  and  _38
REMARK   14  A    between atoms: _37  and  _40
REMARK   15  A    between atoms: _40  and  _41
REMARK   16  A    between atoms: _46  and  _48
REMARK   17  A    between atoms: _48  and  _49
REMARK   18  A    between atoms: _48  and  _51
REMARK   19  A    between atoms: _51  and  _52
REMARK   20  A    between atoms: _55  and  _57
REMARK   21  A    between atoms: _57  and  _58
REMARK   22  A    between atoms: _57  and  _60
REMARK   23  A    between atoms: _60  and  _61
REMARK   24  A    between atoms: _64  and  _66
REMARK   25  A    between atoms: _66  and  _67
REMARK   26  A    between atoms: _66  and  _69
REMARK   27  A    between atoms: _69  and  _70
REMARK   28  A    between atoms: _75  and  _77
REMARK   29  A    between atoms: _77  and  _78
REMARK   30  A    between atoms: _77  and  _80
REMARK   31  A    between atoms: _80  and  _81
REMARK   32  A    between atoms: _86  and  _87
REMARK   33  A    between atoms: _89  and  _91
REMARK   34  A    between atoms: _91  and  _92
REMARK   35  A    between atoms: _91  and  _94
REMARK   36  A    between atoms: _94  and  _95
REMARK   37  A    between atoms: _100  and  _102
REMARK   38  A    between atoms: _102  and  _103
REMARK   39  A    between atoms: _102  and  _105
REMARK   40  A    between atoms: _105  and  _106
REMARK   41  A    between atoms: _109  and  _111
REMARK   42  A    between atoms: _111  and  _112
REMARK   43  A    between atoms: _115  and  _117
REMARK   44  A    between atoms: _117  and  _118
REMARK   45  A    between atoms: _117  and  _120
REMARK   46  A    between atoms: _120  and  _121
REMARK   47  A    between atoms: _127  and  _129
REMARK   48  A    between atoms: _129  and  _130
REMARK   49  A    between atoms: _129  and  _132
REMARK   50  A    between atoms: _132  and  _133
REMARK   51  A    between atoms: _133  and  _134
REMARK   52  A    between atoms: _134  and  _135
REMARK   53  A    between atoms: _144  and  _146
REMARK   54  A    between atoms: _146  and  _147
REMARK   55  A    between atoms: _146  and  _149
REMARK   56  A    between atoms: _149  and  _150
REMARK   57  A    between atoms: _150  and  _151
REMARK   58  A    between atoms: _154  and  _156
REMARK   59  A    between atoms: _156  and  _157
REMARK   60  A    between atoms: _156  and  _159
REMARK   61  A    between atoms: _162  and  _164
REMARK   62  A    between atoms: _164  and  _165
REMARK   63  A    between atoms: _164  and  _167
REMARK   64  A    between atoms: _167  and  _168
REMARK   65  A    between atoms: _171  and  _173
REMARK   66  A    between atoms: _173  and  _174
REMARK   67  A    between atoms: _173  and  _176
REMARK   68  A    between atoms: _176  and  _177
REMARK   69  A    between atoms: _183  and  _185
REMARK   70  A    between atoms: _185  and  _186
REMARK   71  A    between atoms: _185  and  _188
REMARK   72  A    between atoms: _188  and  _189
REMARK   73  A    between atoms: _194  and  _196
REMARK   74  A    between atoms: _196  and  _197
REMARK   75  A    between atoms: _196  and  _199
REMARK   76  A    between atoms: _199  and  _200
REMARK   77  A    between atoms: _202  and  _204
REMARK   78  A    between atoms: _204  and  _205
REMARK   79  A    between atoms: _204  and  _207
REMARK   80  A    between atoms: _207  and  _208
REMARK   81  A    between atoms: _208  and  _209
REMARK   82  A    between atoms: _209  and  _210
REMARK   83  A    between atoms: _220  and  _221
REMARK   84  A    between atoms: _226  and  _228
REMARK   85  A    between atoms: _228  and  _229
REMARK   86  A    between atoms: _228  and  _231
REMARK   87  A    between atoms: _231  and  _232
REMARK   88  A    between atoms: _242  and  _244
REMARK   89  A    between atoms: _244  and  _245
REMARK   90  A    between atoms: _244  and  _247
REMARK   91  A    between atoms: _247  and  _248
REMARK   92  A    between atoms: _251  and  _253
REMARK   93  A    between atoms: _253  and  _254
REMARK   94  A    between atoms: _253  and  _256
REMARK   95  A    between atoms: _259  and  _261
REMARK   96  A    between atoms: _261  and  _262
REMARK   97  A    between atoms: _261  and  _264
REMARK   98  A    between atoms: _264  and  _265
REMARK   99  A    between atoms: _265  and  _266
REMARK  100  A    between atoms: _269  and  _271
REMARK  101  A    between atoms: _271  and  _272
REMARK  102  A    between atoms: _271  and  _274
REMARK  103  A    between atoms: _274  and  _275
REMARK  104  A    between atoms: _275  and  _276
REMARK  105  A    between atoms: _281  and  _283
REMARK  106  A    between atoms: _283  and  _284
REMARK  107  A    between atoms: _283  and  _286
REMARK  108  A    between atoms: _286  and  _287
REMARK  109  A    between atoms: _287  and  _288
REMARK  110  A    between atoms: _288  and  _289
REMARK  111  A    between atoms: _298  and  _300
REMARK  112  A    between atoms: _300  and  _301
REMARK  113  A    between atoms: _300  and  _303
REMARK  114  A    between atoms: _303  and  _304
REMARK  115  A    between atoms: _304  and  _305
REMARK  116  A    between atoms: _310  and  _312
REMARK  117  A    between atoms: _312  and  _313
REMARK  118  A    between atoms: _312  and  _315
REMARK  119  A    between atoms: _315  and  _316
REMARK                            x       y       z     vdW  Elec       q    Type
REMARK                         _______ _______ _______ _____ _____    ______ ____
ROOT
ATOM      1  CB  ASN A   1      15.119  12.330  -8.066  0.00  0.00    +0.110 C 
ENDROOT
BRANCH   1   2
ATOM      2  CG  ASN A   1      14.199  11.934  -9.209  0.00  0.00    +0.221 C 
ATOM      3  ND2 ASN A   1      13.047  12.599  -9.308  0.00  0.00    -0.329 N 
ATOM      4 HD21 ASN A   1      12.822  13.353  -8.628  0.00  0.00    +0.145 HD
ATOM      5 HD22 ASN A   1      12.374  12.363 -10.065  0.00  0.00    +0.145 HD
ATOM      6  OD1 ASN A   1      14.513  11.037  -9.984  0.00  0.00    -0.275 OA
ENDBRANCH   1   2
BRANCH   1   7
ATOM      7  CA  ASN A   1      14.926  11.459  -6.820  0.00  0.00    +0.142 C 
BRANCH   7   8
ATOM      8  N   ASN A   1      13.506  11.409  -6.503  0.00  0.00    -0.239 NA
ATOM      9  H   ASN A   1      13.047  12.223  -6.046  0.00  0.00    +0.142 HD
ENDBRANCH   7   8
BRANCH   7  10
ATOM     10  C   ASN A   1      15.833  11.999  -5.725  0.00  0.00    +0.225 C 
ATOM     11  O   ASN A   1      15.457  12.924  -5.000  0.00  0.00    -0.287 OA
ENDBRANCH   7  10
ENDBRANCH   1   7
TORSDOF 4
REMARK  Name = ../refined-set-2016/3afk/3afk_pocket.pdb
REMARK  119 active torsions:
REMARK  status: ('A' for Active; 'I' for Inactive)
REMARK    1  A    between atoms: _1  and  _3
REMARK    2  A    between atoms: _3  and  _4
REMARK    3  A    between atoms: _6  and  _8
REMARK    4  A    between atoms: _8  and  _9
REMARK    5  A    between atoms: _8  and  _11
REMARK    6  A    between atoms: _11  and  _12
REMARK    7  A    between atoms: _18  and  _19
REMARK    8  A    between atoms: _24  and  _26
REMARK    9  A    between atoms: _26  and  _27
REMARK   10  A    between atoms: _26  and  _29
REMARK   11  A    between atoms: _29  and  _30
REMARK   12  A    between atoms: _35  and  _37
REMARK   13  A    between atoms: _37  and  _38
REMARK   14  A    between atoms: _37  and  _40
REMARK   15  A    between atoms: _40  and  _41
REMARK   16  A    between atoms: _46  and  _48
REMARK   17  A    between atoms: _48  and  _49
REMARK   18  A    between atoms: _48  and  _51
REMARK   19  A    between atoms: _51  and  _52
REMARK   20  A    between atoms: _55  and  _57
REMARK   21  A    between atoms: _57  and  _58
REMARK   22  A    between atoms: _57  and  _60
REMARK   23  A    between atoms: _60  and  _61
REMARK   24  A    between atoms: _64  and  _66
REMARK   25  A    between atoms: _66  and  _67
REMARK   26  A    between atoms: _66  and  _69
REMARK   27  A    between atoms: _69  and  _70
REMARK   28  A    between atoms: _75  and  _77
REMARK   29  A    between atoms: _77  and  _78
REMARK   30  A    between atoms: _77  and  _80
REMARK   31  A    between atoms: _80  and  _81
REMARK   32  A    between atoms: _86  and  _87
REMARK   33  A    between atoms: _89  and  _91
REMARK   34  A    between atoms: _91  and  _92
REMARK   35  A    between atoms: _91  and  _94
REMARK   36  A    between atoms: _94  and  _95
REMARK   37  A    between atoms: _100  and  _102
REMARK   38  A    between atoms: _102  and  _103
REMARK   39  A    between atoms: _102  and  _105
REMARK   40  A    between atoms: _105  and  _106
REMARK   41  A    between atoms: _109  and  _111
REMARK   42  A    between atoms: _111  and  _112
REMARK   43  A    between atoms: _115  and  _117
REMARK   44  A    between atoms: _117  and  _118
REMARK   45  A    between atoms: _117  and  _120
REMARK   46  A    between atoms: _120  and  _121
REMARK   47  A    between atoms: _127  and  _129
REMARK   48  A    between atoms: _129  and  _130
REMARK   49  A    between atoms: _129  and  _132
REMARK   50  A    between atoms: _132  and  _133
REMARK   51  A    between atoms: _133  and  _134
REMARK   52  A    between atoms: _134  and  _135
REMARK   53  A    between atoms: _144  and  _146
REMARK   54  A    between atoms: _146  and  _147
REMARK   55  A    between atoms: _146  and  _149
REMARK   56  A    between atoms: _149  and  _150
REMARK   57  A    between atoms: _150  and  _151
REMARK   58  A    between atoms: _154  and  _156
REMARK   59  A    between atoms: _156  and  _157
REMARK   60  A    between atoms: _156  and  _159
REMARK   61  A    between atoms: _162  and  _164
REMARK   62  A    between atoms: _164  and  _165
REMARK   63  A    between atoms: _164  and  _167
REMARK   64  A    between atoms: _167  and  _168
REMARK   65  A    between atoms: _171  and  _173
REMARK   66  A    between atoms: _173  and  _174
REMARK   67  A    between atoms: _173  and  _176
REMARK   68  A    between atoms: _176  and  _177
REMARK   69  A    between atoms: _183  and  _185
REMARK   70  A    between atoms: _185  and  _186
REMARK   71  A    between atoms: _185  and  _188
REMARK   72  A    between atoms: _188  and  _189
REMARK   73  A    between atoms: _194  and  _196
REMARK   74  A    between atoms: _196  and  _197
REMARK   75  A    between atoms: _196  and  _199
REMARK   76  A    between atoms: _199  and  _200
REMARK   77  A    between atoms: _202  and  _204
REMARK   78  A    between atoms: _204  and  _205
REMARK   79  A    between atoms: _204  and  _207
REMARK   80  A    between atoms: _207  and  _208
REMARK   81  A    between atoms: _208  and  _209
REMARK   82  A    between atoms: _209  and  _210
REMARK   83  A    between atoms: _220  and  _221
REMARK   84  A    between atoms: _226  and  _228
REMARK   85  A    between atoms: _228  and  _229
REMARK   86  A    between atoms: _228  and  _231
REMARK   87  A    between atoms: _231  and  _232
REMARK   88  A    between atoms: _242  and  _244
REMARK   89  A    between atoms: _244  and  _245
REMARK   90  A    between atoms: _244  and  _247
REMARK   91  A    between atoms: _247  and  _248
REMARK   92  A    between atoms: _251  and  _253
REMARK   93  A    between atoms: _253  and  _254
REMARK   94  A    between atoms: _253  and  _256
REMARK   95  A    between atoms: _259  and  _261
REMARK   96  A    between atoms: _261  and  _262
REMARK   97  A    between atoms: _261  and  _264
REMARK   98  A    between atoms: _264  and  _265
REMARK   99  A    between atoms: _265  and  _266
REMARK  100  A    between atoms: _269  and  _271
REMARK  101  A    between atoms: _271  and  _272
REMARK  102  A    between atoms: _271  and  _274
REMARK  103  A    between atoms: _274  and  _275
REMARK  104  A    between atoms: _275  and  _276
REMARK  105  A    between atoms: _281  and  _283
REMARK  106  A    between atoms: _283  and  _284
REMARK  107  A    between atoms: _283  and  _286
REMARK  108  A    between atoms: _286  and  _287
REMARK  109  A    between atoms: _287  and  _288
REMARK  110  A    between atoms: _288  and  _289
REMARK  111  A    between atoms: _298  and  _300
REMARK  112  A    between atoms: _300  and  _301
REMARK  113  A    between atoms: _300  and  _303
REMARK  114  A    between atoms: _303  and  _304
REMARK  115  A    between atoms: _304  and  _305
REMARK  116  A    between atoms: _310  and  _312
REMARK  117  A    between atoms: _312  and  _313
REMARK  118  A    between atoms: _312  and  _315
REMARK  119  A    between atoms: _315  and  _316
REMARK                            x       y       z     vdW  Elec       q    Type
REMARK                         _______ _______ _______ _____ _____    ______ ____
ROOT
ATOM      1  CG  TYR A   1      18.774  11.658 -12.016  0.00  0.00    -0.020 A 
ATOM      2  CD2 TYR A   1      17.427  11.642 -11.654  0.00  0.00    -0.001 A 
ATOM      3  CE2 TYR A   1      16.491  12.447 -12.307  0.00  0.00    +0.036 A 
ATOM      4  CZ  TYR A   1      16.901  13.283 -13.332  0.00  0.00    +0.134 A 
ATOM      5  CE1 TYR A   1      18.236  13.331 -13.704  0.00  0.00    +0.036 A 
ATOM      6  CD1 TYR A   1      19.168  12.516 -13.040  0.00  0.00    -0.001 A 
ENDROOT
BRANCH   4   7
ATOM      7  OH  TYR A   1      15.966  14.040 -14.001  0.00  0.00    -0.506 OA
ATOM      8  HH  TYR A   1      15.072  13.883 -13.606  0.00  0.00    +0.292 HD
ENDBRANCH   4   7
BRANCH   1   9
ATOM      9  CB  TYR A   1      19.758  10.694 -11.380  0.00  0.00    +0.051 C 
BRANCH   9  10
ATOM     10  CA  TYR A   1      20.646  11.261 -10.269  0.00  0.00    +0.137 C 
BRANCH  10  11
ATOM     11  N   TYR A   1      21.736  12.038 -10.837  0.00  0.00    -0.239 NA
ATOM     12  H   TYR A   1      21.999  11.885 -11.831  0.00  0.00    +0.142 HD
ENDBRANCH  10  11
BRANCH  10  13
ATOM     13  C   TYR A   1      21.293  10.093  -9.521  0.00  0.00    +0.224 C 
ATOM     14  O   TYR A   1      21.579   9.059 -10.123  0.00  0.00    -0.287 OA
ENDBRANCH  10  13
ENDBRANCH   9  10
ENDBRANCH   1   9
TORSDOF 5
REMARK  Name = ../refined-set-2016/3afk/3afk_pocket.pdb
REMARK  119 active torsions:
REMARK  status: ('A' for Active; 'I' for Inactive)
REMARK    1  A    between atoms: _1  and  _3
REMARK    2  A    between atoms: _3  and  _4
REMARK    3  A    between atoms: _6  and  _8
REMARK    4  A    between atoms: _8  and  _9
REMARK    5  A    between atoms: _8  and  _11
REMARK    6  A    between atoms: _11  and  _12
REMARK    7  A    between atoms: _18  and  _19
REMARK    8  A    between atoms: _24  and  _26
REMARK    9  A    between atoms: _26  and  _27
REMARK   10  A    between atoms: _26  and  _29
REMARK   11  A    between atoms: _29  and  _30
REMARK   12  A    between atoms: _35  and  _37
REMARK   13  A    between atoms: _37  and  _38
REMARK   14  A    between atoms: _37  and  _40
REMARK   15  A    between atoms: _40  and  _41
REMARK   16  A    between atoms: _46  and  _48
REMARK   17  A    between atoms: _48  and  _49
REMARK   18  A    between atoms: _48  and  _51
REMARK   19  A    between atoms: _51  and  _52
REMARK   20  A    between atoms: _55  and  _57
REMARK   21  A    between atoms: _57  and  _58
REMARK   22  A    between atoms: _57  and  _60
REMARK   23  A    between atoms: _60  and  _61
REMARK   24  A    between atoms: _64  and  _66
REMARK   25  A    between atoms: _66  and  _67
REMARK   26  A    between atoms: _66  and  _69
REMARK   27  A    between atoms: _69  and  _70
REMARK   28  A    between atoms: _75  and  _77
REMARK   29  A    between atoms: _77  and  _78
REMARK   30  A    between atoms: _77  and  _80
REMARK   31  A    between atoms: _80  and  _81
REMARK   32  A    between atoms: _86  and  _87
REMARK   33  A    between atoms: _89  and  _91
REMARK   34  A    between atoms: _91  and  _92
REMARK   35  A    between atoms: _91  and  _94
REMARK   36  A    between atoms: _94  and  _95
REMARK   37  A    between atoms: _100  and  _102
REMARK   38  A    between atoms: _102  and  _103
REMARK   39  A    between atoms: _102  and  _105
REMARK   40  A    between atoms: _105  and  _106
REMARK   41  A    between atoms: _109  and  _111
REMARK   42  A    between atoms: _111  and  _112
REMARK   43  A    between atoms: _115  and  _117
REMARK   44  A    between atoms: _117  and  _118
REMARK   45  A    between atoms: _117  and  _120
REMARK   46  A    between atoms: _120  and  _121
REMARK   47  A    between atoms: _127  and  _129
REMARK   48  A    between atoms: _129  and  _130
REMARK   49  A    between atoms: _129  and  _132
REMARK   50  A    between atoms: _132  and  _133
REMARK   51  A    between atoms: _133  and  _134
REMARK   52  A    between atoms: _134  and  _135
REMARK   53  A    between atoms: _144  and  _146
REMARK   54  A    between atoms: _146  and  _147
REMARK   55  A    between atoms: _146  and  _149
REMARK   56  A    between atoms: _149  and  _150
REMARK   57  A    between atoms: _150  and  _151
REMARK   58  A    between atoms: _154  and  _156
REMARK   59  A    between atoms: _156  and  _157
REMARK   60  A    between atoms: _156  and  _159
REMARK   61  A    between atoms: _162  and  _164
REMARK   62  A    between atoms: _164  and  _165
REMARK   63  A    between atoms: _164  and  _167
REMARK   64  A    between atoms: _167  and  _168
REMARK   65  A    between atoms: _171  and  _173
REMARK   66  A    between atoms: _173  and  _174
REMARK   67  A    between atoms: _173  and  _176
REMARK   68  A    between atoms: _176  and  _177
REMARK   69  A    between atoms: _183  and  _185
REMARK   70  A    between atoms: _185  and  _186
REMARK   71  A    between atoms: _185  and  _188
REMARK   72  A    between atoms: _188  and  _189
REMARK   73  A    between atoms: _194  and  _196
REMARK   74  A    between atoms: _196  and  _197
REMARK   75  A    between atoms: _196  and  _199
REMARK   76  A    between atoms: _199  and  _200
REMARK   77  A    between atoms: _202  and  _204
REMARK   78  A    between atoms: _204  and  _205
REMARK   79  A    between atoms: _204  and  _207
REMARK   80  A    between atoms: _207  and  _208
REMARK   81  A    between atoms: _208  and  _209
REMARK   82  A    between atoms: _209  and  _210
REMARK   83  A    between atoms: _220  and  _221
REMARK   84  A    between atoms: _226  and  _228
REMARK   85  A    between atoms: _228  and  _229
REMARK   86  A    between atoms: _228  and  _231
REMARK   87  A    between atoms: _231  and  _232
REMARK   88  A    between atoms: _242  and  _244
REMARK   89  A    between atoms: _244  and  _245
REMARK   90  A    between atoms: _244  and  _247
REMARK   91  A    between atoms: _247  and  _248
REMARK   92  A    between atoms: _251  and  _253
REMARK   93  A    between atoms: _253  and  _254
REMARK   94  A    between atoms: _253  and  _256
REMARK   95  A    between atoms: _259  and  _261
REMARK   96  A    between atoms: _261  and  _262
REMARK   97  A    between atoms: _261  and  _264
REMARK   98  A    between atoms: _264  and  _265
REMARK   99  A    between atoms: _265  and  _266
REMARK  100  A    between atoms: _269  and  _271
REMARK  101  A    between atoms: _271  and  _272
REMARK  102  A    between atoms: _271  and  _274
REMARK  103  A    between atoms: _274  and  _275
REMARK  104  A    between atoms: _275  and  _276
REMARK  105  A    between atoms: _281  and  _283
REMARK  106  A    between atoms: _283  and  _284
REMARK  107  A    between atoms: _283  and  _286
REMARK  108  A    between atoms: _286  and  _287
REMARK  109  A    between atoms: _287  and  _288
REMARK  110  A    between atoms: _288  and  _289
REMARK  111  A    between atoms: _298  and  _300
REMARK  112  A    between atoms: _300  and  _301
REMARK  113  A    between atoms: _300  and  _303
REMARK  114  A    between atoms: _303  and  _304
REMARK  115  A    between atoms: _304  and  _305
REMARK  116  A    between atoms: _310  and  _312
REMARK  117  A    between atoms: _312  and  _313
REMARK  118  A    between atoms: _312  and  _315
REMARK  119  A    between atoms: _315  and  _316
REMARK                            x       y       z     vdW  Elec       q    Type
REMARK                         _______ _______ _______ _____ _____    ______ ____
ROOT
ATOM      1  C   ALA A   3       8.935   4.822 -11.130  0.00  0.00    +0.241 C 
ATOM      2  N   PHE A   4       7.726   5.311 -10.874  0.00  0.00    -0.297 N 
ATOM      3  H   PHE A   4       7.613   6.336 -10.736  0.00  0.00    +0.150 HD
ATOM      4  O   ALA A   3       9.155   3.623 -11.301  0.00  0.00    -0.273 OA
ENDROOT
BRANCH   1   5
ATOM      5  CA  ALA A   3      10.061   5.841 -11.207  0.00  0.00    +0.149 C 
ATOM      6  CB  ALA A   3      10.565   5.962 -12.640  0.00  0.00    +0.031 C 
BRANCH   5   9
ATOM      7  C   ILE A   2      11.494   6.322  -9.329  0.00  0.00    +0.241 C 
ATOM      8  O   ILE A   2      10.881   7.361  -9.097  0.00  0.00    -0.273 OA
ATOM      9  N   ALA A   3      11.169   5.511 -10.326  0.00  0.00    -0.297 N 
ATOM     10  H   ALA A   3      11.709   4.635 -10.478  0.00  0.00    +0.150 HD
BRANCH   7  11
ATOM     11  CA  ILE A   2      12.687   5.914  -8.473  0.00  0.00    +0.148 C 
BRANCH  11  13
ATOM     12  C   HIS A   1      14.861   6.567  -9.325  0.00  0.00    +0.239 C 
ATOM     13  N   ILE A   2      13.734   6.906  -8.709  0.00  0.00    -0.297 N 
ATOM     14  H   ILE A   2      13.595   7.887  -8.392  0.00  0.00    +0.150 HD
ATOM     15  O   HIS A   1      15.106   5.413  -9.680  0.00  0.00    -0.274 OA
BRANCH  12  16
ATOM     16  CA  HIS A   1      15.882   7.675  -9.549  0.00  0.00    +0.151 C 
BRANCH  16  17
ATOM     17  N   HIS A   1      17.080   7.278  -8.821  0.00  0.00    -0.238 NA
ATOM     18  H   HIS A   1      17.563   6.405  -9.113  0.00  0.00    +0.142 HD
ENDBRANCH  16  17
BRANCH  16  19
ATOM     19  CB  HIS A   1      16.213   7.793 -11.045  0.00  0.00    +0.074 C 
BRANCH  19  20
ATOM     20  CG  HIS A   1      15.028   8.046 -11.931  0.00  0.00    +0.082 A 
ATOM     21  ND1 HIS A   1      14.332   9.237 -11.932  0.00  0.00    -0.227 NA
ATOM     22  CE1 HIS A   1      13.399   9.199 -12.867  0.00  0.00    +0.199 A 
ATOM     23  NE2 HIS A   1      13.459   8.025 -13.470  0.00  0.00    -0.221 NA
ATOM     24  CD2 HIS A   1      14.466   7.283 -12.901  0.00  0.00    +0.115 A 
ENDBRANCH  19  20
ENDBRANCH  16  19
ENDBRANCH  12  16
ENDBRANCH  11  13
BRANCH  11  25
ATOM     25  CB  ILE A   2      12.259   5.865  -6.990  0.00  0.00    +0.027 C 
ATOM     26  CG2 ILE A   2      11.285   4.707  -6.771  0.00  0.00    +0.002 C 
BRANCH  25  27
ATOM     27  CG1 ILE A   2      13.485   5.665  -6.091  0.00  0.00    +0.002 C 
ATOM     28  CD1 ILE A   2      13.180   5.709  -4.600  0.00  0.00    +0.000 C 
ENDBRANCH  25  27
ENDBRANCH  11  25
ENDBRANCH   7  11
ENDBRANCH   5   9
ENDBRANCH   1   5
BRANCH   2  29
ATOM     29  CA  PHE A   4       6.554   4.448 -10.782  0.00  0.00    +0.153 C 
BRANCH  29  30
ATOM     30  C   PHE A   4       5.748   4.525 -12.079  0.00  0.00    +0.241 C 
ATOM     31  O   PHE A   4       5.382   5.611 -12.529  0.00  0.00    -0.273 OA
ATOM     32  N   ARG A   5       5.490   3.369 -12.684  0.00  0.00    -0.298 N 
ATOM     33  H   ARG A   5       5.833   2.486 -12.254  0.00  0.00    +0.150 HD
BRANCH  32  34
ATOM     34  CA  ARG A   5       4.738   3.304 -13.935  0.00  0.00    +0.137 C 
BRANCH  34  35
ATOM     35  C   ARG A   5       3.580   2.325 -13.802  0.00  0.00    +0.227 C 
ATOM     36  O   ARG A   5       3.788   1.117 -13.670  0.00  0.00    -0.286 OA
ENDBRANCH  34  35
BRANCH  34  37
ATOM     37  CB  ARG A   5       5.655   2.871 -15.089  0.00  0.00    +0.031 C 
BRANCH  37  38
ATOM     38  CG  ARG A   5       6.821   3.813 -15.338  0.00  0.00    +0.045 C 
BRANCH  38  39
ATOM     39  CD  ARG A   5       7.683   3.380 -16.526  0.00  0.00    +0.174 C 
BRANCH  39  40
ATOM     40  NE  ARG A   5       8.845   4.255 -16.653  0.00  0.00    -0.265 N 
ATOM     41  HE  ARG A   5       8.886   5.093 -16.038  0.00  0.00    +0.259 HD
ATOM     42  CZ  ARG A   5       9.854   4.061 -17.496  0.00  0.00    +0.342 C 
ATOM     43  NH2 ARG A   5      10.880   4.908 -17.504  0.00  0.00    -0.292 N 
ATOM     44 HH21 ARG A   5      10.890   5.718 -16.852  0.00  0.00    +0.255 HD
ATOM     45 HH22 ARG A   5      11.672   4.760 -18.162  0.00  0.00    +0.255 HD
ATOM     46  NH1 ARG A   5       9.854   3.014 -18.310  0.00  0.00    -0.292 N 
ATOM     47 HH11 ARG A   5       9.062   2.340 -18.291  0.00  0.00    +0.255 HD
ATOM     48 HH12 ARG A   5      10.646   2.867 -18.968  0.00  0.00    +0.255 HD
ENDBRANCH  39  40
ENDBRANCH  38  39
ENDBRANCH  37  38
ENDBRANCH  34  37
ENDBRANCH  32  34
ENDBRANCH  29  30
BRANCH  29  49
ATOM     49  CB  PHE A   4       5.682   4.865  -9.595  0.00  0.00    +0.055 C 
BRANCH  49  50
ATOM     50  CG  PHE A   4       6.404   4.864  -8.273  0.00  0.00    -0.020 A 
ATOM     51  CD2 PHE A   4       6.274   3.789  -7.394  0.00  0.00    -0.004 A 
ATOM     52  CE2 PHE A   4       6.924   3.795  -6.151  0.00  0.00    -0.000 A 
ATOM     53  CZ  PHE A   4       7.712   4.885  -5.783  0.00  0.00    -0.000 A 
ATOM     54  CE1 PHE A   4       7.851   5.962  -6.658  0.00  0.00    -0.000 A 
ATOM     55  CD1 PHE A   4       7.198   5.945  -7.897  0.00  0.00    -0.004 A 
ENDBRANCH  49  50
ENDBRANCH  29  49
ENDBRANCH   2  29
TORSDOF 20
REMARK  Name = ../refined-set-2016/3afk/3afk_pocket.pdb
REMARK  119 active torsions:
REMARK  status: ('A' for Active; 'I' for Inactive)
REMARK    1  A    between atoms: _1  and  _3
REMARK    2  A    between atoms: _3  and  _4
REMARK    3  A    between atoms: _6  and  _8
REMARK    4  A    between atoms: _8  and  _9
REMARK    5  A    between atoms: _8  and  _11
REMARK    6  A    between atoms: _11  and  _12
REMARK    7  A    between atoms: _18  and  _19
REMARK    8  A    between atoms: _24  and  _26
REMARK    9  A    between atoms: _26  and  _27
REMARK   10  A    between atoms: _26  and  _29
REMARK   11  A    between atoms: _29  and  _30
REMARK   12  A    between atoms: _35  and  _37
REMARK   13  A    between atoms: _37  and  _38
REMARK   14  A    between atoms: _37  and  _40
REMARK   15  A    between atoms: _40  and  _41
REMARK   16  A    between atoms: _46  and  _48
REMARK   17  A    between atoms: _48  and  _49
REMARK   18  A    between atoms: _48  and  _51
REMARK   19  A    between atoms: _51  and  _52
REMARK   20  A    between atoms: _55  and  _57
REMARK   21  A    between atoms: _57  and  _58
REMARK   22  A    between atoms: _57  and  _60
REMARK   23  A    between atoms: _60  and  _61
REMARK   24  A    between atoms: _64  and  _66
REMARK   25  A    between atoms: _66  and  _67
REMARK   26  A    between atoms: _66  and  _69
REMARK   27  A    between atoms: _69  and  _70
REMARK   28  A    between atoms: _75  and  _77
REMARK   29  A    between atoms: _77  and  _78
REMARK   30  A    between atoms: _77  and  _80
REMARK   31  A    between atoms: _80  and  _81
REMARK   32  A    between atoms: _86  and  _87
REMARK   33  A    between atoms: _89  and  _91
REMARK   34  A    between atoms: _91  and  _92
REMARK   35  A    between atoms: _91  and  _94
REMARK   36  A    between atoms: _94  and  _95
REMARK   37  A    between atoms: _100  and  _102
REMARK   38  A    between atoms: _102  and  _103
REMARK   39  A    between atoms: _102  and  _105
REMARK   40  A    between atoms: _105  and  _106
REMARK   41  A    between atoms: _109  and  _111
REMARK   42  A    between atoms: _111  and  _112
REMARK   43  A    between atoms: _115  and  _117
REMARK   44  A    between atoms: _117  and  _118
REMARK   45  A    between atoms: _117  and  _120
REMARK   46  A    between atoms: _120  and  _121
REMARK   47  A    between atoms: _127  and  _129
REMARK   48  A    between atoms: _129  and  _130
REMARK   49  A    between atoms: _129  and  _132
REMARK   50  A    between atoms: _132  and  _133
REMARK   51  A    between atoms: _133  and  _134
REMARK   52  A    between atoms: _134  and  _135
REMARK   53  A    between atoms: _144  and  _146
REMARK   54  A    between atoms: _146  and  _147
REMARK   55  A    between atoms: _146  and  _149
REMARK   56  A    between atoms: _149  and  _150
REMARK   57  A    between atoms: _150  and  _151
REMARK   58  A    between atoms: _154  and  _156
REMARK   59  A    between atoms: _156  and  _157
REMARK   60  A    between atoms: _156  and  _159
REMARK   61  A    between atoms: _162  and  _164
REMARK   62  A    between atoms: _164  and  _165
REMARK   63  A    between atoms: _164  and  _167
REMARK   64  A    between atoms: _167  and  _168
REMARK   65  A    between atoms: _171  and  _173
REMARK   66  A    between atoms: _173  and  _174
REMARK   67  A    between atoms: _173  and  _176
REMARK   68  A    between atoms: _176  and  _177
REMARK   69  A    between atoms: _183  and  _185
REMARK   70  A    between atoms: _185  and  _186
REMARK   71  A    between atoms: _185  and  _188
REMARK   72  A    between atoms: _188  and  _189
REMARK   73  A    between atoms: _194  and  _196
REMARK   74  A    between atoms: _196  and  _197
REMARK   75  A    between atoms: _196  and  _199
REMARK   76  A    between atoms: _199  and  _200
REMARK   77  A    between atoms: _202  and  _204
REMARK   78  A    between atoms: _204  and  _205
REMARK   79  A    between atoms: _204  and  _207
REMARK   80  A    between atoms: _207  and  _208
REMARK   81  A    between atoms: _208  and  _209
REMARK   82  A    between atoms: _209  and  _210
REMARK   83  A    between atoms: _220  and  _221
REMARK   84  A    between atoms: _226  and  _228
REMARK   85  A    between atoms: _228  and  _229
REMARK   86  A    between atoms: _228  and  _231
REMARK   87  A    between atoms: _231  and  _232
REMARK   88  A    between atoms: _242  and  _244
REMARK   89  A    between atoms: _244  and  _245
REMARK   90  A    between atoms: _244  and  _247
REMARK   91  A    between atoms: _247  and  _248
REMARK   92  A    between atoms: _251  and  _253
REMARK   93  A    between atoms: _253  and  _254
REMARK   94  A    between atoms: _253  and  _256
REMARK   95  A    between atoms: _259  and  _261
REMARK   96  A    between atoms: _261  and  _262
REMARK   97  A    between atoms: _261  and  _264
REMARK   98  A    between atoms: _264  and  _265
REMARK   99  A    between atoms: _265  and  _266
REMARK  100  A    between atoms: _269  and  _271
REMARK  101  A    between atoms: _271  and  _272
REMARK  102  A    between atoms: _271  and  _274
REMARK  103  A    between atoms: _274  and  _275
REMARK  104  A    between atoms: _275  and  _276
REMARK  105  A    between atoms: _281  and  _283
REMARK  106  A    between atoms: _283  and  _284
REMARK  107  A    between atoms: _283  and  _286
REMARK  108  A    between atoms: _286  and  _287
REMARK  109  A    between atoms: _287  and  _288
REMARK  110  A    between atoms: _288  and  _289
REMARK  111  A    between atoms: _298  and  _300
REMARK  112  A    between atoms: _300  and  _301
REMARK  113  A    between atoms: _300  and  _303
REMARK  114  A    between atoms: _303  and  _304
REMARK  115  A    between atoms: _304  and  _305
REMARK  116  A    between atoms: _310  and  _312
REMARK  117  A    between atoms: _312  and  _313
REMARK  118  A    between atoms: _312  and  _315
REMARK  119  A    between atoms: _315  and  _316
REMARK                            x       y       z     vdW  Elec       q    Type
REMARK                         _______ _______ _______ _____ _____    ______ ____
ROOT
ATOM      1  CA  GLU A   1       3.948  -0.723 -17.533  0.00  0.00    +0.134 C 
ENDROOT
BRANCH   1   2
ATOM      2  N   GLU A   1       2.893   0.266 -17.337  0.00  0.00    -0.239 NA
ATOM      3  H   GLU A   1       3.133   1.208 -16.967  0.00  0.00    +0.142 HD
ENDBRANCH   1   2
BRANCH   1   4
ATOM      4  C   GLU A   1       4.055  -1.603 -16.288  0.00  0.00    +0.224 C 
ATOM      5  O   GLU A   1       4.837  -2.557 -16.244  0.00  0.00    -0.287 OA
ENDBRANCH   1   4
BRANCH   1   6
ATOM      6  CB  GLU A   1       5.281  -0.025 -17.827  0.00  0.00    +0.037 C 
BRANCH   6   7
ATOM      7  CG  GLU A   1       5.366   0.527 -19.249  0.00  0.00    +0.116 C 
BRANCH   7   8
ATOM      8  CD  GLU A   1       6.624   1.338 -19.498  0.00  0.00    +0.365 C 
ATOM      9  OE2 GLU A   1       7.708   0.911 -19.046  0.00  0.00    -0.246 OA
ATOM     10  OE1 GLU A   1       6.529   2.401 -20.155  0.00  0.00    -0.246 OA
ENDBRANCH   7   8
ENDBRANCH   6   7
ENDBRANCH   1   6
TORSDOF 5
REMARK  Name = ../refined-set-2016/3afk/3afk_pocket.pdb
REMARK  119 active torsions:
REMARK  status: ('A' for Active; 'I' for Inactive)
REMARK    1  A    between atoms: _1  and  _3
REMARK    2  A    between atoms: _3  and  _4
REMARK    3  A    between atoms: _6  and  _8
REMARK    4  A    between atoms: _8  and  _9
REMARK    5  A    between atoms: _8  and  _11
REMARK    6  A    between atoms: _11  and  _12
REMARK    7  A    between atoms: _18  and  _19
REMARK    8  A    between atoms: _24  and  _26
REMARK    9  A    between atoms: _26  and  _27
REMARK   10  A    between atoms: _26  and  _29
REMARK   11  A    between atoms: _29  and  _30
REMARK   12  A    between atoms: _35  and  _37
REMARK   13  A    between atoms: _37  and  _38
REMARK   14  A    between atoms: _37  and  _40
REMARK   15  A    between atoms: _40  and  _41
REMARK   16  A    between atoms: _46  and  _48
REMARK   17  A    between atoms: _48  and  _49
REMARK   18  A    between atoms: _48  and  _51
REMARK   19  A    between atoms: _51  and  _52
REMARK   20  A    between atoms: _55  and  _57
REMARK   21  A    between atoms: _57  and  _58
REMARK   22  A    between atoms: _57  and  _60
REMARK   23  A    between atoms: _60  and  _61
REMARK   24  A    between atoms: _64  and  _66
REMARK   25  A    between atoms: _66  and  _67
REMARK   26  A    between atoms: _66  and  _69
REMARK   27  A    between atoms: _69  and  _70
REMARK   28  A    between atoms: _75  and  _77
REMARK   29  A    between atoms: _77  and  _78
REMARK   30  A    between atoms: _77  and  _80
REMARK   31  A    between atoms: _80  and  _81
REMARK   32  A    between atoms: _86  and  _87
REMARK   33  A    between atoms: _89  and  _91
REMARK   34  A    between atoms: _91  and  _92
REMARK   35  A    between atoms: _91  and  _94
REMARK   36  A    between atoms: _94  and  _95
REMARK   37  A    between atoms: _100  and  _102
REMARK   38  A    between atoms: _102  and  _103
REMARK   39  A    between atoms: _102  and  _105
REMARK   40  A    between atoms: _105  and  _106
REMARK   41  A    between atoms: _109  and  _111
REMARK   42  A    between atoms: _111  and  _112
REMARK   43  A    between atoms: _115  and  _117
REMARK   44  A    between atoms: _117  and  _118
REMARK   45  A    between atoms: _117  and  _120
REMARK   46  A    between atoms: _120  and  _121
REMARK   47  A    between atoms: _127  and  _129
REMARK   48  A    between atoms: _129  and  _130
REMARK   49  A    between atoms: _129  and  _132
REMARK   50  A    between atoms: _132  and  _133
REMARK   51  A    between atoms: _133  and  _134
REMARK   52  A    between atoms: _134  and  _135
REMARK   53  A    between atoms: _144  and  _146
REMARK   54  A    between atoms: _146  and  _147
REMARK   55  A    between atoms: _146  and  _149
REMARK   56  A    between atoms: _149  and  _150
REMARK   57  A    between atoms: _150  and  _151
REMARK   58  A    between atoms: _154  and  _156
REMARK   59  A    between atoms: _156  and  _157
REMARK   60  A    between atoms: _156  and  _159
REMARK   61  A    between atoms: _162  and  _164
REMARK   62  A    between atoms: _164  and  _165
REMARK   63  A    between atoms: _164  and  _167
REMARK   64  A    between atoms: _167  and  _168
REMARK   65  A    between atoms: _171  and  _173
REMARK   66  A    between atoms: _173  and  _174
REMARK   67  A    between atoms: _173  and  _176
REMARK   68  A    between atoms: _176  and  _177
REMARK   69  A    between atoms: _183  and  _185
REMARK   70  A    between atoms: _185  and  _186
REMARK   71  A    between atoms: _185  and  _188
REMARK   72  A    between atoms: _188  and  _189
REMARK   73  A    between atoms: _194  and  _196
REMARK   74  A    between atoms: _196  and  _197
REMARK   75  A    between atoms: _196  and  _199
REMARK   76  A    between atoms: _199  and  _200
REMARK   77  A    between atoms: _202  and  _204
REMARK   78  A    between atoms: _204  and  _205
REMARK   79  A    between atoms: _204  and  _207
REMARK   80  A    between atoms: _207  and  _208
REMARK   81  A    between atoms: _208  and  _209
REMARK   82  A    between atoms: _209  and  _210
REMARK   83  A    between atoms: _220  and  _221
REMARK   84  A    between atoms: _226  and  _228
REMARK   85  A    between atoms: _228  and  _229
REMARK   86  A    between atoms: _228  and  _231
REMARK   87  A    between atoms: _231  and  _232
REMARK   88  A    between atoms: _242  and  _244
REMARK   89  A    between atoms: _244  and  _245
REMARK   90  A    between atoms: _244  and  _247
REMARK   91  A    between atoms: _247  and  _248
REMARK   92  A    between atoms: _251  and  _253
REMARK   93  A    between atoms: _253  and  _254
REMARK   94  A    between atoms: _253  and  _256
REMARK   95  A    between atoms: _259  and  _261
REMARK   96  A    between atoms: _261  and  _262
REMARK   97  A    between atoms: _261  and  _264
REMARK   98  A    between atoms: _264  and  _265
REMARK   99  A    between atoms: _265  and  _266
REMARK  100  A    between atoms: _269  and  _271
REMARK  101  A    between atoms: _271  and  _272
REMARK  102  A    between atoms: _271  and  _274
REMARK  103  A    between atoms: _274  and  _275
REMARK  104  A    between atoms: _275  and  _276
REMARK  105  A    between atoms: _281  and  _283
REMARK  106  A    between atoms: _283  and  _284
REMARK  107  A    between atoms: _283  and  _286
REMARK  108  A    between atoms: _286  and  _287
REMARK  109  A    between atoms: _287  and  _288
REMARK  110  A    between atoms: _288  and  _289
REMARK  111  A    between atoms: _298  and  _300
REMARK  112  A    between atoms: _300  and  _301
REMARK  113  A    between atoms: _300  and  _303
REMARK  114  A    between atoms: _303  and  _304
REMARK  115  A    between atoms: _304  and  _305
REMARK  116  A    between atoms: _310  and  _312
REMARK  117  A    between atoms: _312  and  _313
REMARK  118  A    between atoms: _312  and  _315
REMARK  119  A    between atoms: _315  and  _316
REMARK                            x       y       z     vdW  Elec       q    Type
REMARK                         _______ _______ _______ _____ _____    ______ ____
ROOT
ATOM      1  CA  VAL A   1       6.714  -1.551 -12.719  0.00  0.00    +0.133 C 
ENDROOT
BRANCH   1   2
ATOM      2  CB  VAL A   1       7.667  -1.916 -13.882  0.00  0.00    +0.023 C 
ATOM      3  CG2 VAL A   1       9.037  -2.299 -13.345  0.00  0.00    +0.002 C 
ATOM      4  CG1 VAL A   1       7.778  -0.741 -14.853  0.00  0.00    +0.002 C 
ENDBRANCH   1   2
BRANCH   1   5
ATOM      5  N   VAL A   1       5.371  -1.329 -13.219  0.00  0.00    -0.239 NA
ATOM      6  H   VAL A   1       5.030  -0.358 -13.372  0.00  0.00    +0.142 HD
ENDBRANCH   1   5
BRANCH   1   7
ATOM      7  C   VAL A   1       7.270  -0.334 -11.996  0.00  0.00    +0.224 C 
ATOM      8  O   VAL A   1       6.870   0.802 -12.260  0.00  0.00    -0.287 OA
ENDBRANCH   1   7
TORSDOF 3
REMARK  Name = ../refined-set-2016/3afk/3afk_pocket.pdb
REMARK  119 active torsions:
REMARK  status: ('A' for Active; 'I' for Inactive)
REMARK    1  A    between atoms: _1  and  _3
REMARK    2  A    between atoms: _3  and  _4
REMARK    3  A    between atoms: _6  and  _8
REMARK    4  A    between atoms: _8  and  _9
REMARK    5  A    between atoms: _8  and  _11
REMARK    6  A    between atoms: _11  and  _12
REMARK    7  A    between atoms: _18  and  _19
REMARK    8  A    between atoms: _24  and  _26
REMARK    9  A    between atoms: _26  and  _27
REMARK   10  A    between atoms: _26  and  _29
REMARK   11  A    between atoms: _29  and  _30
REMARK   12  A    between atoms: _35  and  _37
REMARK   13  A    between atoms: _37  and  _38
REMARK   14  A    between atoms: _37  and  _40
REMARK   15  A    between atoms: _40  and  _41
REMARK   16  A    between atoms: _46  and  _48
REMARK   17  A    between atoms: _48  and  _49
REMARK   18  A    between atoms: _48  and  _51
REMARK   19  A    between atoms: _51  and  _52
REMARK   20  A    between atoms: _55  and  _57
REMARK   21  A    between atoms: _57  and  _58
REMARK   22  A    between atoms: _57  and  _60
REMARK   23  A    between atoms: _60  and  _61
REMARK   24  A    between atoms: _64  and  _66
REMARK   25  A    between atoms: _66  and  _67
REMARK   26  A    between atoms: _66  and  _69
REMARK   27  A    between atoms: _69  and  _70
REMARK   28  A    between atoms: _75  and  _77
REMARK   29  A    between atoms: _77  and  _78
REMARK   30  A    between atoms: _77  and  _80
REMARK   31  A    between atoms: _80  and  _81
REMARK   32  A    between atoms: _86  and  _87
REMARK   33  A    between atoms: _89  and  _91
REMARK   34  A    between atoms: _91  and  _92
REMARK   35  A    between atoms: _91  and  _94
REMARK   36  A    between atoms: _94  and  _95
REMARK   37  A    between atoms: _100  and  _102
REMARK   38  A    between atoms: _102  and  _103
REMARK   39  A    between atoms: _102  and  _105
REMARK   40  A    between atoms: _105  and  _106
REMARK   41  A    between atoms: _109  and  _111
REMARK   42  A    between atoms: _111  and  _112
REMARK   43  A    between atoms: _115  and  _117
REMARK   44  A    between atoms: _117  and  _118
REMARK   45  A    between atoms: _117  and  _120
REMARK   46  A    between atoms: _120  and  _121
REMARK   47  A    between atoms: _127  and  _129
REMARK   48  A    between atoms: _129  and  _130
REMARK   49  A    between atoms: _129  and  _132
REMARK   50  A    between atoms: _132  and  _133
REMARK   51  A    between atoms: _133  and  _134
REMARK   52  A    between atoms: _134  and  _135
REMARK   53  A    between atoms: _144  and  _146
REMARK   54  A    between atoms: _146  and  _147
REMARK   55  A    between atoms: _146  and  _149
REMARK   56  A    between atoms: _149  and  _150
REMARK   57  A    between atoms: _150  and  _151
REMARK   58  A    between atoms: _154  and  _156
REMARK   59  A    between atoms: _156  and  _157
REMARK   60  A    between atoms: _156  and  _159
REMARK   61  A    between atoms: _162  and  _164
REMARK   62  A    between atoms: _164  and  _165
REMARK   63  A    between atoms: _164  and  _167
REMARK   64  A    between atoms: _167  and  _168
REMARK   65  A    between atoms: _171  and  _173
REMARK   66  A    between atoms: _173  and  _174
REMARK   67  A    between atoms: _173  and  _176
REMARK   68  A    between atoms: _176  and  _177
REMARK   69  A    between atoms: _183  and  _185
REMARK   70  A    between atoms: _185  and  _186
REMARK   71  A    between atoms: _185  and  _188
REMARK   72  A    between atoms: _188  and  _189
REMARK   73  A    between atoms: _194  and  _196
REMARK   74  A    between atoms: _196  and  _197
REMARK   75  A    between atoms: _196  and  _199
REMARK   76  A    between atoms: _199  and  _200
REMARK   77  A    between atoms: _202  and  _204
REMARK   78  A    between atoms: _204  and  _205
REMARK   79  A    between atoms: _204  and  _207
REMARK   80  A    between atoms: _207  and  _208
REMARK   81  A    between atoms: _208  and  _209
REMARK   82  A    between atoms: _209  and  _210
REMARK   83  A    between atoms: _220  and  _221
REMARK   84  A    between atoms: _226  and  _228
REMARK   85  A    between atoms: _228  and  _229
REMARK   86  A    between atoms: _228  and  _231
REMARK   87  A    between atoms: _231  and  _232
REMARK   88  A    between atoms: _242  and  _244
REMARK   89  A    between atoms: _244  and  _245
REMARK   90  A    between atoms: _244  and  _247
REMARK   91  A    between atoms: _247  and  _248
REMARK   92  A    between atoms: _251  and  _253
REMARK   93  A    between atoms: _253  and  _254
REMARK   94  A    between atoms: _253  and  _256
REMARK   95  A    between atoms: _259  and  _261
REMARK   96  A    between atoms: _261  and  _262
REMARK   97  A    between atoms: _261  and  _264
REMARK   98  A    between atoms: _264  and  _265
REMARK   99  A    between atoms: _265  and  _266
REMARK  100  A    between atoms: _269  and  _271
REMARK  101  A    between atoms: _271  and  _272
REMARK  102  A    between atoms: _271  and  _274
REMARK  103  A    between atoms: _274  and  _275
REMARK  104  A    between atoms: _275  and  _276
REMARK  105  A    between atoms: _281  and  _283
REMARK  106  A    between atoms: _283  and  _284
REMARK  107  A    between atoms: _283  and  _286
REMARK  108  A    between atoms: _286  and  _287
REMARK  109  A    between atoms: _287  and  _288
REMARK  110  A    between atoms: _288  and  _289
REMARK  111  A    between atoms: _298  and  _300
REMARK  112  A    between atoms: _300  and  _301
REMARK  113  A    between atoms: _300  and  _303
REMARK  114  A    between atoms: _303  and  _304
REMARK  115  A    between atoms: _304  and  _305
REMARK  116  A    between atoms: _310  and  _312
REMARK  117  A    between atoms: _312  and  _313
REMARK  118  A    between atoms: _312  and  _315
REMARK  119  A    between atoms: _315  and  _316
REMARK                            x       y       z     vdW  Elec       q    Type
REMARK                         _______ _______ _______ _____ _____    ______ ____
ROOT
ATOM      1  CA  ASN A   3      18.292   3.834 -11.913  0.00  0.00    +0.158 C 
ENDROOT
BRANCH   1   3
ATOM      2  C   PHE A   2      16.610   2.362 -10.993  0.00  0.00    +0.241 C 
ATOM      3  N   ASN A   3      17.158   3.572 -11.037  0.00  0.00    -0.297 N 
ATOM      4  H   ASN A   3      16.775   4.335 -10.443  0.00  0.00    +0.150 HD
ATOM      5  O   PHE A   2      17.021   1.420 -11.676  0.00  0.00    -0.273 OA
BRANCH   2   6
ATOM      6  CA  PHE A   2      15.423   2.180 -10.059  0.00  0.00    +0.153 C 
BRANCH   6   9
ATOM      7  C   ILE A   1      13.170   2.123 -10.985  0.00  0.00    +0.238 C 
ATOM      8  O   ILE A   1      12.852   3.175 -10.435  0.00  0.00    -0.274 OA
ATOM      9  N   PHE A   2      14.364   1.558 -10.843  0.00  0.00    -0.297 N 
ATOM     10  H   PHE A   2      14.548   0.645 -11.305  0.00  0.00    +0.150 HD
BRANCH   7  11
ATOM     11  CA  ILE A   1      12.182   1.373 -11.865  0.00  0.00    +0.145 C 
BRANCH  11  12
ATOM     12  CB  ILE A   1      12.232   1.949 -13.299  0.00  0.00    +0.025 C 
ATOM     13  CG2 ILE A   1      13.682   2.151 -13.738  0.00  0.00    +0.002 C 
BRANCH  12  14
ATOM     14  CG1 ILE A   1      11.474   1.010 -14.246  0.00  0.00    +0.002 C 
ATOM     15  CD1 ILE A   1      11.258   1.554 -15.647  0.00  0.00    +0.000 C 
ENDBRANCH  12  14
ENDBRANCH  11  12
BRANCH  11  16
ATOM     16  N   ILE A   1      10.820   1.412 -11.358  0.00  0.00    -0.238 NA
ATOM     17  H   ILE A   1      10.265   2.287 -11.442  0.00  0.00    +0.142 HD
ENDBRANCH  11  16
ENDBRANCH   7  11
ENDBRANCH   6   9
BRANCH   6  18
ATOM     18  CB  PHE A   2      15.826   1.295  -8.874  0.00  0.00    +0.055 C 
BRANCH  18  19
ATOM     19  CG  PHE A   2      14.708   1.030  -7.914  0.00  0.00    -0.020 A 
ATOM     20  CD2 PHE A   2      14.484   1.884  -6.835  0.00  0.00    -0.004 A 
ATOM     21  CE2 PHE A   2      13.414   1.673  -5.970  0.00  0.00    -0.000 A 
ATOM     22  CZ  PHE A   2      12.556   0.594  -6.180  0.00  0.00    -0.000 A 
ATOM     23  CE1 PHE A   2      12.774  -0.263  -7.250  0.00  0.00    -0.000 A 
ATOM     24  CD1 PHE A   2      13.846  -0.043  -8.111  0.00  0.00    -0.004 A 
ENDBRANCH  18  19
ENDBRANCH   6  18
ENDBRANCH   2   6
ENDBRANCH   1   3
BRANCH   1  25
ATOM     25  C   ASN A   3      19.099   5.028 -11.420  0.00  0.00    +0.241 C 
ATOM     26  O   ASN A   3      18.760   5.639 -10.402  0.00  0.00    -0.273 OA
ATOM     27  N   SER A   4      20.163   5.346 -12.154  0.00  0.00    -0.295 N 
ATOM     28  H   SER A   4      20.371   4.773 -12.996  0.00  0.00    +0.150 HD
BRANCH  27  29
ATOM     29  CA  SER A   4      21.052   6.457 -11.837  0.00  0.00    +0.178 C 
BRANCH  29  30
ATOM     30  C   SER A   4      21.640   6.970 -13.144  0.00  0.00    +0.243 C 
ATOM     31  N   ARG A   5      22.235   8.158 -13.095  0.00  0.00    -0.298 N 
ATOM     32  H   ARG A   5      22.233   8.684 -12.198  0.00  0.00    +0.150 HD
ATOM     33  O   SER A   4      21.557   6.298 -14.171  0.00  0.00    -0.273 OA
BRANCH  31  34
ATOM     34  CA  ARG A   5      22.891   8.750 -14.258  0.00  0.00    +0.137 C 
BRANCH  34  35
ATOM     35  C   ARG A   5      23.520  10.087 -13.918  0.00  0.00    +0.227 C 
ATOM     36  O   ARG A   5      23.043  10.810 -13.042  0.00  0.00    -0.286 OA
ENDBRANCH  34  35
BRANCH  34  37
ATOM     37  CB  ARG A   5      21.922   8.941 -15.430  0.00  0.00    +0.031 C 
BRANCH  37  38
ATOM     38  CG  ARG A   5      20.666   9.711 -15.086  0.00  0.00    +0.045 C 
BRANCH  38  39
ATOM     39  CD  ARG A   5      20.159  10.531 -16.257  0.00  0.00    +0.174 C 
BRANCH  39  40
ATOM     40  NE  ARG A   5      20.890  11.787 -16.356  0.00  0.00    -0.265 N 
ATOM     41  HE  ARG A   5      21.906  11.774 -16.135  0.00  0.00    +0.259 HD
ATOM     42  CZ  ARG A   5      20.349  12.948 -16.709  0.00  0.00    +0.342 C 
ATOM     43  NH2 ARG A   5      21.104  14.029 -16.767  0.00  0.00    -0.292 N 
ATOM     44 HH21 ARG A   5      22.116  13.969 -16.537  0.00  0.00    +0.255 HD
ATOM     45 HH22 ARG A   5      20.686  14.941 -17.043  0.00  0.00    +0.255 HD
ATOM     46  NH1 ARG A   5      19.058  13.030 -17.000  0.00  0.00    -0.292 N 
ATOM     47 HH11 ARG A   5      18.459  12.181 -16.953  0.00  0.00    +0.255 HD
ATOM     48 HH12 ARG A   5      18.644  13.943 -17.275  0.00  0.00    +0.255 HD
ENDBRANCH  39  40
ENDBRANCH  38  39
ENDBRANCH  37  38
ENDBRANCH  34  37
ENDBRANCH  31  34
ENDBRANCH  29  30
BRANCH  29  49
ATOM     49  CB  SER A   4      22.218   5.991 -10.947  0.00  0.00    +0.166 C 
BRANCH  49  50
ATOM     50  OG  SER A   4      21.779   5.366  -9.753  0.00  0.00    -0.380 OA
ATOM     51  H   SER A   4      21.233   4.572  -9.979  0.00  0.00    +0.211 HD
ENDBRANCH  49  50
ENDBRANCH  29  49
ENDBRANCH  27  29
ENDBRANCH   1  25
BRANCH   1  52
ATOM     52  CB  ASN A   3      17.803   4.099 -13.342  0.00  0.00    +0.114 C 
BRANCH  52  53
ATOM     53  CG  ASN A   3      18.805   3.654 -14.395  0.00  0.00    +0.222 C 
ATOM     54  OD1 ASN A   3      19.966   3.380 -14.088  0.00  0.00    -0.275 OA
ATOM     55  ND2 ASN A   3      18.358   3.581 -15.646  0.00  0.00    -0.329 N 
ATOM     56 HD21 ASN A   3      17.369   3.822 -15.860  0.00  0.00    +0.145 HD
ATOM     57 HD22 ASN A   3      18.997   3.283 -16.410  0.00  0.00    +0.145 HD
ENDBRANCH  52  53
ENDBRANCH   1  52
TORSDOF 22
REMARK  Name = ../refined-set-2016/3afk/3afk_pocket.pdb
REMARK  119 active torsions:
REMARK  status: ('A' for Active; 'I' for Inactive)
REMARK    1  A    between atoms: _1  and  _3
REMARK    2  A    between atoms: _3  and  _4
REMARK    3  A    between atoms: _6  and  _8
REMARK    4  A    between atoms: _8  and  _9
REMARK    5  A    between atoms: _8  and  _11
REMARK    6  A    between atoms: _11  and  _12
REMARK    7  A    between atoms: _18  and  _19
REMARK    8  A    between atoms: _24  and  _26
REMARK    9  A    between atoms: _26  and  _27
REMARK   10  A    between atoms: _26  and  _29
REMARK   11  A    between atoms: _29  and  _30
REMARK   12  A    between atoms: _35  and  _37
REMARK   13  A    between atoms: _37  and  _38
REMARK   14  A    between atoms: _37  and  _40
REMARK   15  A    between atoms: _40  and  _41
REMARK   16  A    between atoms: _46  and  _48
REMARK   17  A    between atoms: _48  and  _49
REMARK   18  A    between atoms: _48  and  _51
REMARK   19  A    between atoms: _51  and  _52
REMARK   20  A    between atoms: _55  and  _57
REMARK   21  A    between atoms: _57  and  _58
REMARK   22  A    between atoms: _57  and  _60
REMARK   23  A    between atoms: _60  and  _61
REMARK   24  A    between atoms: _64  and  _66
REMARK   25  A    between atoms: _66  and  _67
REMARK   26  A    between atoms: _66  and  _69
REMARK   27  A    between atoms: _69  and  _70
REMARK   28  A    between atoms: _75  and  _77
REMARK   29  A    between atoms: _77  and  _78
REMARK   30  A    between atoms: _77  and  _80
REMARK   31  A    between atoms: _80  and  _81
REMARK   32  A    between atoms: _86  and  _87
REMARK   33  A    between atoms: _89  and  _91
REMARK   34  A    between atoms: _91  and  _92
REMARK   35  A    between atoms: _91  and  _94
REMARK   36  A    between atoms: _94  and  _95
REMARK   37  A    between atoms: _100  and  _102
REMARK   38  A    between atoms: _102  and  _103
REMARK   39  A    between atoms: _102  and  _105
REMARK   40  A    between atoms: _105  and  _106
REMARK   41  A    between atoms: _109  and  _111
REMARK   42  A    between atoms: _111  and  _112
REMARK   43  A    between atoms: _115  and  _117
REMARK   44  A    between atoms: _117  and  _118
REMARK   45  A    between atoms: _117  and  _120
REMARK   46  A    between atoms: _120  and  _121
REMARK   47  A    between atoms: _127  and  _129
REMARK   48  A    between atoms: _129  and  _130
REMARK   49  A    between atoms: _129  and  _132
REMARK   50  A    between atoms: _132  and  _133
REMARK   51  A    between atoms: _133  and  _134
REMARK   52  A    between atoms: _134  and  _135
REMARK   53  A    between atoms: _144  and  _146
REMARK   54  A    between atoms: _146  and  _147
REMARK   55  A    between atoms: _146  and  _149
REMARK   56  A    between atoms: _149  and  _150
REMARK   57  A    between atoms: _150  and  _151
REMARK   58  A    between atoms: _154  and  _156
REMARK   59  A    between atoms: _156  and  _157
REMARK   60  A    between atoms: _156  and  _159
REMARK   61  A    between atoms: _162  and  _164
REMARK   62  A    between atoms: _164  and  _165
REMARK   63  A    between atoms: _164  and  _167
REMARK   64  A    between atoms: _167  and  _168
REMARK   65  A    between atoms: _171  and  _173
REMARK   66  A    between atoms: _173  and  _174
REMARK   67  A    between atoms: _173  and  _176
REMARK   68  A    between atoms: _176  and  _177
REMARK   69  A    between atoms: _183  and  _185
REMARK   70  A    between atoms: _185  and  _186
REMARK   71  A    between atoms: _185  and  _188
REMARK   72  A    between atoms: _188  and  _189
REMARK   73  A    between atoms: _194  and  _196
REMARK   74  A    between atoms: _196  and  _197
REMARK   75  A    between atoms: _196  and  _199
REMARK   76  A    between atoms: _199  and  _200
REMARK   77  A    between atoms: _202  and  _204
REMARK   78  A    between atoms: _204  and  _205
REMARK   79  A    between atoms: _204  and  _207
REMARK   80  A    between atoms: _207  and  _208
REMARK   81  A    between atoms: _208  and  _209
REMARK   82  A    between atoms: _209  and  _210
REMARK   83  A    between atoms: _220  and  _221
REMARK   84  A    between atoms: _226  and  _228
REMARK   85  A    between atoms: _228  and  _229
REMARK   86  A    between atoms: _228  and  _231
REMARK   87  A    between atoms: _231  and  _232
REMARK   88  A    between atoms: _242  and  _244
REMARK   89  A    between atoms: _244  and  _245
REMARK   90  A    between atoms: _244  and  _247
REMARK   91  A    between atoms: _247  and  _248
REMARK   92  A    between atoms: _251  and  _253
REMARK   93  A    between atoms: _253  and  _254
REMARK   94  A    between atoms: _253  and  _256
REMARK   95  A    between atoms: _259  and  _261
REMARK   96  A    between atoms: _261  and  _262
REMARK   97  A    between atoms: _261  and  _264
REMARK   98  A    between atoms: _264  and  _265
REMARK   99  A    between atoms: _265  and  _266
REMARK  100  A    between atoms: _269  and  _271
REMARK  101  A    between atoms: _271  and  _272
REMARK  102  A    between atoms: _271  and  _274
REMARK  103  A    between atoms: _274  and  _275
REMARK  104  A    between atoms: _275  and  _276
REMARK  105  A    between atoms: _281  and  _283
REMARK  106  A    between atoms: _283  and  _284
REMARK  107  A    between atoms: _283  and  _286
REMARK  108  A    between atoms: _286  and  _287
REMARK  109  A    between atoms: _287  and  _288
REMARK  110  A    between atoms: _288  and  _289
REMARK  111  A    between atoms: _298  and  _300
REMARK  112  A    between atoms: _300  and  _301
REMARK  113  A    between atoms: _300  and  _303
REMARK  114  A    between atoms: _303  and  _304
REMARK  115  A    between atoms: _304  and  _305
REMARK  116  A    between atoms: _310  and  _312
REMARK  117  A    between atoms: _312  and  _313
REMARK  118  A    between atoms: _312  and  _315
REMARK  119  A    between atoms: _315  and  _316
REMARK                            x       y       z     vdW  Elec       q    Type
REMARK                         _______ _______ _______ _____ _____    ______ ____
ROOT
ATOM      1  C   VAL A   4      20.095  -0.018 -14.889  0.00  0.00    +0.241 C 
ATOM      2  O   VAL A   4      20.261   0.097 -13.676  0.00  0.00    -0.273 OA
ATOM      3  N   GLU A   5      18.894  -0.143 -15.450  0.00  0.00    -0.297 N 
ATOM      4  H   GLU A   5      18.827  -0.236 -16.484  0.00  0.00    +0.150 HD
ENDROOT
BRANCH   1   5
ATOM      5  CA  VAL A   4      21.279  -0.028 -15.845  0.00  0.00    +0.149 C 
BRANCH   5   7
ATOM      6  C   LEU A   3      21.600   2.243 -16.622  0.00  0.00    +0.241 C 
ATOM      7  N   VAL A   4      22.032   1.223 -15.889  0.00  0.00    -0.297 N 
ATOM      8  H   VAL A   4      22.912   1.316 -15.343  0.00  0.00    +0.150 HD
ATOM      9  O   LEU A   3      20.547   2.199 -17.263  0.00  0.00    -0.273 OA
BRANCH   6  10
ATOM     10  CA  LEU A   3      22.468   3.494 -16.655  0.00  0.00    +0.149 C 
BRANCH  10  12
ATOM     11  C   TRP A   2      21.421   5.193 -18.009  0.00  0.00    +0.241 C 
ATOM     12  N   LEU A   3      21.702   4.719 -16.805  0.00  0.00    -0.297 N 
ATOM     13  H   LEU A   3      21.372   5.228 -15.960  0.00  0.00    +0.150 HD
ATOM     14  O   TRP A   2      21.771   4.626 -19.047  0.00  0.00    -0.273 OA
BRANCH  11  15
ATOM     15  CA  TRP A   2      20.649   6.500 -18.057  0.00  0.00    +0.153 C 
BRANCH  15  18
ATOM     16  C   PRO A   1      22.492   7.636 -19.113  0.00  0.00    +0.239 C 
ATOM     17  O   PRO A   1      23.228   7.428 -18.140  0.00  0.00    -0.274 OA
ATOM     18  N   TRP A   2      21.222   7.256 -19.152  0.00  0.00    -0.297 N 
ATOM     19  H   TRP A   2      20.634   7.502 -19.974  0.00  0.00    +0.150 HD
BRANCH  16  21
ATOM     20  N   PRO A   1      24.194   9.159 -19.994  0.00  0.00    -0.210 NA
ATOM     21  CA  PRO A   1      23.009   8.380 -20.337  0.00  0.00    +0.149 C 
ATOM     22  CB  PRO A   1      23.529   7.430 -21.403  0.00  0.00    +0.028 C 
ATOM     23  CG  PRO A   1      24.902   7.132 -20.911  0.00  0.00    +0.021 C 
ATOM     24  CD  PRO A   1      25.416   8.509 -20.500  0.00  0.00    +0.089 C 
ENDBRANCH  16  21
ENDBRANCH  15  18
BRANCH  15  25
ATOM     25  CB  TRP A   2      19.163   6.247 -18.296  0.00  0.00    +0.057 C 
BRANCH  25  26
ATOM     26  CG  TRP A   2      18.315   7.379 -17.813  0.00  0.00    -0.002 A 
ATOM     27  CD2 TRP A   2      18.083   7.744 -16.447  0.00  0.00    +0.013 A 
ATOM     28  CE3 TRP A   2      18.498   7.216 -15.216  0.00  0.00    +0.001 A 
ATOM     29  CZ3 TRP A   2      18.074   7.841 -14.041  0.00  0.00    +0.000 A 
ATOM     30  CH2 TRP A   2      17.246   8.976 -14.086  0.00  0.00    +0.001 A 
ATOM     31  CZ2 TRP A   2      16.826   9.511 -15.277  0.00  0.00    +0.017 A 
ATOM     32  CE2 TRP A   2      17.252   8.886 -16.455  0.00  0.00    +0.056 A 
ATOM     33  NE1 TRP A   2      16.994   9.198 -17.763  0.00  0.00    -0.352 N 
ATOM     34  HE1 TRP A   2      16.409   9.993 -18.092  0.00  0.00    +0.166 HD
ATOM     35  CD1 TRP A   2      17.637   8.286 -18.573  0.00  0.00    +0.068 A 
ENDBRANCH  25  26
ENDBRANCH  15  25
ENDBRANCH  11  15
ENDBRANCH  10  12
BRANCH  10  36
ATOM     36  CB  LEU A   3      23.360   3.607 -15.412  0.00  0.00    +0.029 C 
BRANCH  36  37
ATOM     37  CG  LEU A   3      24.307   4.817 -15.516  0.00  0.00    +0.002 C 
ATOM     38  CD2 LEU A   3      25.183   4.932 -14.281  0.00  0.00    +0.000 C 
ATOM     39  CD1 LEU A   3      25.173   4.679 -16.759  0.00  0.00    +0.000 C 
ENDBRANCH  36  37
ENDBRANCH  10  36
ENDBRANCH   6  10
ENDBRANCH   5   7
BRANCH   5  40
ATOM     40  CB  VAL A   4      22.207  -1.210 -15.491  0.00  0.00    +0.027 C 
ATOM     41  CG2 VAL A   4      21.437  -2.519 -15.555  0.00  0.00    +0.002 C 
ATOM     42  CG1 VAL A   4      23.374  -1.244 -16.457  0.00  0.00    +0.002 C 
ENDBRANCH   5  40
ENDBRANCH   1   5
BRANCH   3  43
ATOM     43  CA  GLU A   5      17.671  -0.153 -14.659  0.00  0.00    +0.149 C 
BRANCH  43  44
ATOM     44  C   GLU A   5      17.528  -1.428 -13.840  0.00  0.00    +0.241 C 
ATOM     45  N   GLN A   6      16.967  -1.286 -12.645  0.00  0.00    -0.297 N 
ATOM     46  H   GLN A   6      16.733  -0.330 -12.309  0.00  0.00    +0.150 HD
ATOM     47  O   GLU A   5      17.925  -2.508 -14.274  0.00  0.00    -0.273 OA
BRANCH  45  48
ATOM     48  CA  GLN A   6      16.670  -2.425 -11.792  0.00  0.00    +0.149 C 
BRANCH  48  49
ATOM     49  C   GLN A   6      15.153  -2.294 -11.694  0.00  0.00    +0.241 C 
ATOM     50  O   GLN A   6      14.637  -1.220 -11.369  0.00  0.00    -0.273 OA
ATOM     51  N   ARG A   7      14.434  -3.366 -12.006  0.00  0.00    -0.298 N 
ATOM     52  H   ARG A   7      14.913  -4.254 -12.260  0.00  0.00    +0.150 HD
BRANCH  51  53
ATOM     53  CA  ARG A   7      12.982  -3.306 -11.994  0.00  0.00    +0.137 C 
BRANCH  53  54
ATOM     54  C   ARG A   7      12.257  -4.202 -11.008  0.00  0.00    +0.227 C 
ATOM     55  O   ARG A   7      12.695  -5.308 -10.709  0.00  0.00    -0.286 OA
ENDBRANCH  53  54
BRANCH  53  56
ATOM     56  CB  ARG A   7      12.447  -3.604 -13.393  0.00  0.00    +0.031 C 
BRANCH  56  57
ATOM     57  CG  ARG A   7      12.811  -2.568 -14.436  0.00  0.00    +0.045 C 
BRANCH  57  58
ATOM     58  CD  ARG A   7      12.117  -2.884 -15.750  0.00  0.00    +0.174 C 
BRANCH  58  59
ATOM     59  NE  ARG A   7      12.258  -1.798 -16.712  0.00  0.00    -0.265 N 
ATOM     60  HE  ARG A   7      13.042  -1.127 -16.581  0.00  0.00    +0.259 HD
ATOM     61  CZ  ARG A   7      11.445  -1.615 -17.746  0.00  0.00    +0.342 C 
ATOM     62  NH2 ARG A   7      10.436  -2.451 -17.945  0.00  0.00    -0.292 N 
ATOM     63 HH21 ARG A   7      10.283  -3.247 -17.293  0.00  0.00    +0.255 HD
ATOM     64 HH22 ARG A   7       9.797  -2.312 -18.753  0.00  0.00    +0.255 HD
ATOM     65  NH1 ARG A   7      11.632  -0.594 -18.571  0.00  0.00    -0.292 N 
ATOM     66 HH11 ARG A   7      12.418   0.068 -18.410  0.00  0.00    +0.255 HD
ATOM     67 HH12 ARG A   7      10.993  -0.455 -19.379  0.00  0.00    +0.255 HD
ENDBRANCH  58  59
ENDBRANCH  57  58
ENDBRANCH  56  57
ENDBRANCH  53  56
ENDBRANCH  51  53
ENDBRANCH  48  49
BRANCH  48  68
ATOM     68  CB  GLN A   6      17.323  -2.291 -10.417  0.00  0.00    +0.039 C 
BRANCH  68  69
ATOM     69  CG  GLN A   6      18.842  -2.483 -10.408  0.00  0.00    +0.087 C 
BRANCH  69  70
ATOM     70  CD  GLN A   6      19.298  -3.742 -11.134  0.00  0.00    +0.219 C 
ATOM     71  OE1 GLN A   6      18.641  -4.783 -11.078  0.00  0.00    -0.275 OA
ATOM     72  NE2 GLN A   6      20.441  -3.654 -11.805  0.00  0.00    -0.329 N 
ATOM     73 HE21 GLN A   6      20.964  -2.755 -11.826  0.00  0.00    +0.145 HD
ATOM     74 HE22 GLN A   6      20.813  -4.484 -12.309  0.00  0.00    +0.145 HD
ENDBRANCH  69  70
ENDBRANCH  68  69
ENDBRANCH  48  68
ENDBRANCH  45  48
ENDBRANCH  43  44
BRANCH  43  75
ATOM     75  CB  GLU A   5      16.430  -0.058 -15.560  0.00  0.00    +0.041 C 
BRANCH  75  76
ATOM     76  CG  GLU A   5      16.160   1.287 -16.223  0.00  0.00    +0.116 C 
BRANCH  76  77
ATOM     77  CD  GLU A   5      14.860   1.283 -17.022  0.00  0.00    +0.365 C 
ATOM     78  OE2 GLU A   5      14.267   0.198 -17.210  0.00  0.00    -0.246 OA
ATOM     79  OE1 GLU A   5      14.424   2.367 -17.467  0.00  0.00    -0.246 OA
ENDBRANCH  76  77
ENDBRANCH  75  76
ENDBRANCH  43  75
ENDBRANCH   3  43
TORSDOF 28
REMARK  Name = ../refined-set-2016/3afk/3afk_pocket.pdb
REMARK  119 active torsions:
REMARK  status: ('A' for Active; 'I' for Inactive)
REMARK    1  A    between atoms: _1  and  _3
REMARK    2  A    between atoms: _3  and  _4
REMARK    3  A    between atoms: _6  and  _8
REMARK    4  A    between atoms: _8  and  _9
REMARK    5  A    between atoms: _8  and  _11
REMARK    6  A    between atoms: _11  and  _12
REMARK    7  A    between atoms: _18  and  _19
REMARK    8  A    between atoms: _24  and  _26
REMARK    9  A    between atoms: _26  and  _27
REMARK   10  A    between atoms: _26  and  _29
REMARK   11  A    between atoms: _29  and  _30
REMARK   12  A    between atoms: _35  and  _37
REMARK   13  A    between atoms: _37  and  _38
REMARK   14  A    between atoms: _37  and  _40
REMARK   15  A    between atoms: _40  and  _41
REMARK   16  A    between atoms: _46  and  _48
REMARK   17  A    between atoms: _48  and  _49
REMARK   18  A    between atoms: _48  and  _51
REMARK   19  A    between atoms: _51  and  _52
REMARK   20  A    between atoms: _55  and  _57
REMARK   21  A    between atoms: _57  and  _58
REMARK   22  A    between atoms: _57  and  _60
REMARK   23  A    between atoms: _60  and  _61
REMARK   24  A    between atoms: _64  and  _66
REMARK   25  A    between atoms: _66  and  _67
REMARK   26  A    between atoms: _66  and  _69
REMARK   27  A    between atoms: _69  and  _70
REMARK   28  A    between atoms: _75  and  _77
REMARK   29  A    between atoms: _77  and  _78
REMARK   30  A    between atoms: _77  and  _80
REMARK   31  A    between atoms: _80  and  _81
REMARK   32  A    between atoms: _86  and  _87
REMARK   33  A    between atoms: _89  and  _91
REMARK   34  A    between atoms: _91  and  _92
REMARK   35  A    between atoms: _91  and  _94
REMARK   36  A    between atoms: _94  and  _95
REMARK   37  A    between atoms: _100  and  _102
REMARK   38  A    between atoms: _102  and  _103
REMARK   39  A    between atoms: _102  and  _105
REMARK   40  A    between atoms: _105  and  _106
REMARK   41  A    between atoms: _109  and  _111
REMARK   42  A    between atoms: _111  and  _112
REMARK   43  A    between atoms: _115  and  _117
REMARK   44  A    between atoms: _117  and  _118
REMARK   45  A    between atoms: _117  and  _120
REMARK   46  A    between atoms: _120  and  _121
REMARK   47  A    between atoms: _127  and  _129
REMARK   48  A    between atoms: _129  and  _130
REMARK   49  A    between atoms: _129  and  _132
REMARK   50  A    between atoms: _132  and  _133
REMARK   51  A    between atoms: _133  and  _134
REMARK   52  A    between atoms: _134  and  _135
REMARK   53  A    between atoms: _144  and  _146
REMARK   54  A    between atoms: _146  and  _147
REMARK   55  A    between atoms: _146  and  _149
REMARK   56  A    between atoms: _149  and  _150
REMARK   57  A    between atoms: _150  and  _151
REMARK   58  A    between atoms: _154  and  _156
REMARK   59  A    between atoms: _156  and  _157
REMARK   60  A    between atoms: _156  and  _159
REMARK   61  A    between atoms: _162  and  _164
REMARK   62  A    between atoms: _164  and  _165
REMARK   63  A    between atoms: _164  and  _167
REMARK   64  A    between atoms: _167  and  _168
REMARK   65  A    between atoms: _171  and  _173
REMARK   66  A    between atoms: _173  and  _174
REMARK   67  A    between atoms: _173  and  _176
REMARK   68  A    between atoms: _176  and  _177
REMARK   69  A    between atoms: _183  and  _185
REMARK   70  A    between atoms: _185  and  _186
REMARK   71  A    between atoms: _185  and  _188
REMARK   72  A    between atoms: _188  and  _189
REMARK   73  A    between atoms: _194  and  _196
REMARK   74  A    between atoms: _196  and  _197
REMARK   75  A    between atoms: _196  and  _199
REMARK   76  A    between atoms: _199  and  _200
REMARK   77  A    between atoms: _202  and  _204
REMARK   78  A    between atoms: _204  and  _205
REMARK   79  A    between atoms: _204  and  _207
REMARK   80  A    between atoms: _207  and  _208
REMARK   81  A    between atoms: _208  and  _209
REMARK   82  A    between atoms: _209  and  _210
REMARK   83  A    between atoms: _220  and  _221
REMARK   84  A    between atoms: _226  and  _228
REMARK   85  A    between atoms: _228  and  _229
REMARK   86  A    between atoms: _228  and  _231
REMARK   87  A    between atoms: _231  and  _232
REMARK   88  A    between atoms: _242  and  _244
REMARK   89  A    between atoms: _244  and  _245
REMARK   90  A    between atoms: _244  and  _247
REMARK   91  A    between atoms: _247  and  _248
REMARK   92  A    between atoms: _251  and  _253
REMARK   93  A    between atoms: _253  and  _254
REMARK   94  A    between atoms: _253  and  _256
REMARK   95  A    between atoms: _259  and  _261
REMARK   96  A    between atoms: _261  and  _262
REMARK   97  A    between atoms: _261  and  _264
REMARK   98  A    between atoms: _264  and  _265
REMARK   99  A    between atoms: _265  and  _266
REMARK  100  A    between atoms: _269  and  _271
REMARK  101  A    between atoms: _271  and  _272
REMARK  102  A    between atoms: _271  and  _274
REMARK  103  A    between atoms: _274  and  _275
REMARK  104  A    between atoms: _275  and  _276
REMARK  105  A    between atoms: _281  and  _283
REMARK  106  A    between atoms: _283  and  _284
REMARK  107  A    between atoms: _283  and  _286
REMARK  108  A    between atoms: _286  and  _287
REMARK  109  A    between atoms: _287  and  _288
REMARK  110  A    between atoms: _288  and  _289
REMARK  111  A    between atoms: _298  and  _300
REMARK  112  A    between atoms: _300  and  _301
REMARK  113  A    between atoms: _300  and  _303
REMARK  114  A    between atoms: _303  and  _304
REMARK  115  A    between atoms: _304  and  _305
REMARK  116  A    between atoms: _310  and  _312
REMARK  117  A    between atoms: _312  and  _313
REMARK  118  A    between atoms: _312  and  _315
REMARK  119  A    between atoms: _315  and  _316
REMARK                            x       y       z     vdW  Elec       q    Type
REMARK                         _______ _______ _______ _____ _____    ______ ____
ROOT
ATOM      1  CB  GLN A   1      24.828   3.012 -10.966  0.00  0.00    +0.035 C 
ENDROOT
BRANCH   1   2
ATOM      2  CA  GLN A   1      25.873   2.976  -9.848  0.00  0.00    +0.134 C 
BRANCH   2   3
ATOM      3  N   GLN A   1      25.238   2.890  -8.539  0.00  0.00    -0.239 NA
ATOM      4  H   GLN A   1      24.480   3.561  -8.300  0.00  0.00    +0.142 HD
ENDBRANCH   2   3
BRANCH   2   5
ATOM      5  C   GLN A   1      26.695   4.262  -9.825  0.00  0.00    +0.224 C 
ATOM      6  O   GLN A   1      27.619   4.437 -10.609  0.00  0.00    -0.287 OA
ENDBRANCH   2   5
ENDBRANCH   1   2
BRANCH   1   7
ATOM      7  CG  GLN A   1      23.989   1.735 -11.039  0.00  0.00    +0.087 C 
BRANCH   7   8
ATOM      8  CD  GLN A   1      23.213   1.609 -12.337  0.00  0.00    +0.219 C 
ATOM      9  NE2 GLN A   1      21.959   2.038 -12.319  0.00  0.00    -0.329 N 
ATOM     10 HE21 GLN A   1      21.555   2.427 -11.443  0.00  0.00    +0.145 HD
ATOM     11 HE22 GLN A   1      21.379   1.985 -13.181  0.00  0.00    +0.145 HD
ATOM     12  OE1 GLN A   1      23.740   1.139 -13.348  0.00  0.00    -0.275 OA
ENDBRANCH   7   8
ENDBRANCH   1   7
TORSDOF 5
REMARK  Name = ../refined-set-2016/3afk/3afk_pocket.pdb
REMARK  119 active torsions:
REMARK  status: ('A' for Active; 'I' for Inactive)
REMARK    1  A    between atoms: _1  and  _3
REMARK    2  A    between atoms: _3  and  _4
REMARK    3  A    between atoms: _6  and  _8
REMARK    4  A    between atoms: _8  and  _9
REMARK    5  A    between atoms: _8  and  _11
REMARK    6  A    between atoms: _11  and  _12
REMARK    7  A    between atoms: _18  and  _19
REMARK    8  A    between atoms: _24  and  _26
REMARK    9  A    between atoms: _26  and  _27
REMARK   10  A    between atoms: _26  and  _29
REMARK   11  A    between atoms: _29  and  _30
REMARK   12  A    between atoms: _35  and  _37
REMARK   13  A    between atoms: _37  and  _38
REMARK   14  A    between atoms: _37  and  _40
REMARK   15  A    between atoms: _40  and  _41
REMARK   16  A    between atoms: _46  and  _48
REMARK   17  A    between atoms: _48  and  _49
REMARK   18  A    between atoms: _48  and  _51
REMARK   19  A    between atoms: _51  and  _52
REMARK   20  A    between atoms: _55  and  _57
REMARK   21  A    between atoms: _57  and  _58
REMARK   22  A    between atoms: _57  and  _60
REMARK   23  A    between atoms: _60  and  _61
REMARK   24  A    between atoms: _64  and  _66
REMARK   25  A    between atoms: _66  and  _67
REMARK   26  A    between atoms: _66  and  _69
REMARK   27  A    between atoms: _69  and  _70
REMARK   28  A    between atoms: _75  and  _77
REMARK   29  A    between atoms: _77  and  _78
REMARK   30  A    between atoms: _77  and  _80
REMARK   31  A    between atoms: _80  and  _81
REMARK   32  A    between atoms: _86  and  _87
REMARK   33  A    between atoms: _89  and  _91
REMARK   34  A    between atoms: _91  and  _92
REMARK   35  A    between atoms: _91  and  _94
REMARK   36  A    between atoms: _94  and  _95
REMARK   37  A    between atoms: _100  and  _102
REMARK   38  A    between atoms: _102  and  _103
REMARK   39  A    between atoms: _102  and  _105
REMARK   40  A    between atoms: _105  and  _106
REMARK   41  A    between atoms: _109  and  _111
REMARK   42  A    between atoms: _111  and  _112
REMARK   43  A    between atoms: _115  and  _117
REMARK   44  A    between atoms: _117  and  _118
REMARK   45  A    between atoms: _117  and  _120
REMARK   46  A    between atoms: _120  and  _121
REMARK   47  A    between atoms: _127  and  _129
REMARK   48  A    between atoms: _129  and  _130
REMARK   49  A    between atoms: _129  and  _132
REMARK   50  A    between atoms: _132  and  _133
REMARK   51  A    between atoms: _133  and  _134
REMARK   52  A    between atoms: _134  and  _135
REMARK   53  A    between atoms: _144  and  _146
REMARK   54  A    between atoms: _146  and  _147
REMARK   55  A    between atoms: _146  and  _149
REMARK   56  A    between atoms: _149  and  _150
REMARK   57  A    between atoms: _150  and  _151
REMARK   58  A    between atoms: _154  and  _156
REMARK   59  A    between atoms: _156  and  _157
REMARK   60  A    between atoms: _156  and  _159
REMARK   61  A    between atoms: _162  and  _164
REMARK   62  A    between atoms: _164  and  _165
REMARK   63  A    between atoms: _164  and  _167
REMARK   64  A    between atoms: _167  and  _168
REMARK   65  A    between atoms: _171  and  _173
REMARK   66  A    between atoms: _173  and  _174
REMARK   67  A    between atoms: _173  and  _176
REMARK   68  A    between atoms: _176  and  _177
REMARK   69  A    between atoms: _183  and  _185
REMARK   70  A    between atoms: _185  and  _186
REMARK   71  A    between atoms: _185  and  _188
REMARK   72  A    between atoms: _188  and  _189
REMARK   73  A    between atoms: _194  and  _196
REMARK   74  A    between atoms: _196  and  _197
REMARK   75  A    between atoms: _196  and  _199
REMARK   76  A    between atoms: _199  and  _200
REMARK   77  A    between atoms: _202  and  _204
REMARK   78  A    between atoms: _204  and  _205
REMARK   79  A    between atoms: _204  and  _207
REMARK   80  A    between atoms: _207  and  _208
REMARK   81  A    between atoms: _208  and  _209
REMARK   82  A    between atoms: _209  and  _210
REMARK   83  A    between atoms: _220  and  _221
REMARK   84  A    between atoms: _226  and  _228
REMARK   85  A    between atoms: _228  and  _229
REMARK   86  A    between atoms: _228  and  _231
REMARK   87  A    between atoms: _231  and  _232
REMARK   88  A    between atoms: _242  and  _244
REMARK   89  A    between atoms: _244  and  _245
REMARK   90  A    between atoms: _244  and  _247
REMARK   91  A    between atoms: _247  and  _248
REMARK   92  A    between atoms: _251  and  _253
REMARK   93  A    between atoms: _253  and  _254
REMARK   94  A    between atoms: _253  and  _256
REMARK   95  A    between atoms: _259  and  _261
REMARK   96  A    between atoms: _261  and  _262
REMARK   97  A    between atoms: _261  and  _264
REMARK   98  A    between atoms: _264  and  _265
REMARK   99  A    between atoms: _265  and  _266
REMARK  100  A    between atoms: _269  and  _271
REMARK  101  A    between atoms: _271  and  _272
REMARK  102  A    between atoms: _271  and  _274
REMARK  103  A    between atoms: _274  and  _275
REMARK  104  A    between atoms: _275  and  _276
REMARK  105  A    between atoms: _281  and  _283
REMARK  106  A    between atoms: _283  and  _284
REMARK  107  A    between atoms: _283  and  _286
REMARK  108  A    between atoms: _286  and  _287
REMARK  109  A    between atoms: _287  and  _288
REMARK  110  A    between atoms: _288  and  _289
REMARK  111  A    between atoms: _298  and  _300
REMARK  112  A    between atoms: _300  and  _301
REMARK  113  A    between atoms: _300  and  _303
REMARK  114  A    between atoms: _303  and  _304
REMARK  115  A    between atoms: _304  and  _305
REMARK  116  A    between atoms: _310  and  _312
REMARK  117  A    between atoms: _312  and  _313
REMARK  118  A    between atoms: _312  and  _315
REMARK  119  A    between atoms: _315  and  _316
REMARK                            x       y       z     vdW  Elec       q    Type
REMARK                         _______ _______ _______ _____ _____    ______ ____
ROOT
ATOM      1  CB  ASN A   1       9.177  14.902 -11.177  0.00  0.00    +0.110 C 
ENDROOT
BRANCH   1   2
ATOM      2  CG  ASN A   1       8.772  15.533 -12.495  0.00  0.00    +0.221 C 
ATOM      3  OD1 ASN A   1       8.015  16.504 -12.526  0.00  0.00    -0.275 OA
ATOM      4  ND2 ASN A   1       9.290  14.992 -13.591  0.00  0.00    -0.329 N 
ATOM      5 HD21 ASN A   1       9.925  14.172 -13.516  0.00  0.00    +0.145 HD
ATOM      6 HD22 ASN A   1       9.061  15.388 -14.525  0.00  0.00    +0.145 HD
ENDBRANCH   1   2
BRANCH   1   7
ATOM      7  CA  ASN A   1       8.053  14.927 -10.136  0.00  0.00    +0.142 C 
BRANCH   7   8
ATOM      8  N   ASN A   1       8.580  14.471  -8.862  0.00  0.00    -0.239 NA
ATOM      9  H   ASN A   1       9.002  13.523  -8.789  0.00  0.00    +0.142 HD
ENDBRANCH   7   8
BRANCH   7  10
ATOM     10  C   ASN A   1       6.852  14.127 -10.619  0.00  0.00    +0.225 C 
ATOM     11  O   ASN A   1       6.866  12.895 -10.627  0.00  0.00    -0.287 OA
ENDBRANCH   7  10
ENDBRANCH   1   7
TORSDOF 4
REMARK  Name = ../refined-set-2016/3afk/3afk_pocket.pdb
REMARK  119 active torsions:
REMARK  status: ('A' for Active; 'I' for Inactive)
REMARK    1  A    between atoms: _1  and  _3
REMARK    2  A    between atoms: _3  and  _4
REMARK    3  A    between atoms: _6  and  _8
REMARK    4  A    between atoms: _8  and  _9
REMARK    5  A    between atoms: _8  and  _11
REMARK    6  A    between atoms: _11  and  _12
REMARK    7  A    between atoms: _18  and  _19
REMARK    8  A    between atoms: _24  and  _26
REMARK    9  A    between atoms: _26  and  _27
REMARK   10  A    between atoms: _26  and  _29
REMARK   11  A    between atoms: _29  and  _30
REMARK   12  A    between atoms: _35  and  _37
REMARK   13  A    between atoms: _37  and  _38
REMARK   14  A    between atoms: _37  and  _40
REMARK   15  A    between atoms: _40  and  _41
REMARK   16  A    between atoms: _46  and  _48
REMARK   17  A    between atoms: _48  and  _49
REMARK   18  A    between atoms: _48  and  _51
REMARK   19  A    between atoms: _51  and  _52
REMARK   20  A    between atoms: _55  and  _57
REMARK   21  A    between atoms: _57  and  _58
REMARK   22  A    between atoms: _57  and  _60
REMARK   23  A    between atoms: _60  and  _61
REMARK   24  A    between atoms: _64  and  _66
REMARK   25  A    between atoms: _66  and  _67
REMARK   26  A    between atoms: _66  and  _69
REMARK   27  A    between atoms: _69  and  _70
REMARK   28  A    between atoms: _75  and  _77
REMARK   29  A    between atoms: _77  and  _78
REMARK   30  A    between atoms: _77  and  _80
REMARK   31  A    between atoms: _80  and  _81
REMARK   32  A    between atoms: _86  and  _87
REMARK   33  A    between atoms: _89  and  _91
REMARK   34  A    between atoms: _91  and  _92
REMARK   35  A    between atoms: _91  and  _94
REMARK   36  A    between atoms: _94  and  _95
REMARK   37  A    between atoms: _100  and  _102
REMARK   38  A    between atoms: _102  and  _103
REMARK   39  A    between atoms: _102  and  _105
REMARK   40  A    between atoms: _105  and  _106
REMARK   41  A    between atoms: _109  and  _111
REMARK   42  A    between atoms: _111  and  _112
REMARK   43  A    between atoms: _115  and  _117
REMARK   44  A    between atoms: _117  and  _118
REMARK   45  A    between atoms: _117  and  _120
REMARK   46  A    between atoms: _120  and  _121
REMARK   47  A    between atoms: _127  and  _129
REMARK   48  A    between atoms: _129  and  _130
REMARK   49  A    between atoms: _129  and  _132
REMARK   50  A    between atoms: _132  and  _133
REMARK   51  A    between atoms: _133  and  _134
REMARK   52  A    between atoms: _134  and  _135
REMARK   53  A    between atoms: _144  and  _146
REMARK   54  A    between atoms: _146  and  _147
REMARK   55  A    between atoms: _146  and  _149
REMARK   56  A    between atoms: _149  and  _150
REMARK   57  A    between atoms: _150  and  _151
REMARK   58  A    between atoms: _154  and  _156
REMARK   59  A    between atoms: _156  and  _157
REMARK   60  A    between atoms: _156  and  _159
REMARK   61  A    between atoms: _162  and  _164
REMARK   62  A    between atoms: _164  and  _165
REMARK   63  A    between atoms: _164  and  _167
REMARK   64  A    between atoms: _167  and  _168
REMARK   65  A    between atoms: _171  and  _173
REMARK   66  A    between atoms: _173  and  _174
REMARK   67  A    between atoms: _173  and  _176
REMARK   68  A    between atoms: _176  and  _177
REMARK   69  A    between atoms: _183  and  _185
REMARK   70  A    between atoms: _185  and  _186
REMARK   71  A    between atoms: _185  and  _188
REMARK   72  A    between atoms: _188  and  _189
REMARK   73  A    between atoms: _194  and  _196
REMARK   74  A    between atoms: _196  and  _197
REMARK   75  A    between atoms: _196  and  _199
REMARK   76  A    between atoms: _199  and  _200
REMARK   77  A    between atoms: _202  and  _204
REMARK   78  A    between atoms: _204  and  _205
REMARK   79  A    between atoms: _204  and  _207
REMARK   80  A    between atoms: _207  and  _208
REMARK   81  A    between atoms: _208  and  _209
REMARK   82  A    between atoms: _209  and  _210
REMARK   83  A    between atoms: _220  and  _221
REMARK   84  A    between atoms: _226  and  _228
REMARK   85  A    between atoms: _228  and  _229
REMARK   86  A    between atoms: _228  and  _231
REMARK   87  A    between atoms: _231  and  _232
REMARK   88  A    between atoms: _242  and  _244
REMARK   89  A    between atoms: _244  and  _245
REMARK   90  A    between atoms: _244  and  _247
REMARK   91  A    between atoms: _247  and  _248
REMARK   92  A    between atoms: _251  and  _253
REMARK   93  A    between atoms: _253  and  _254
REMARK   94  A    between atoms: _253  and  _256
REMARK   95  A    between atoms: _259  and  _261
REMARK   96  A    between atoms: _261  and  _262
REMARK   97  A    between atoms: _261  and  _264
REMARK   98  A    between atoms: _264  and  _265
REMARK   99  A    between atoms: _265  and  _266
REMARK  100  A    between atoms: _269  and  _271
REMARK  101  A    between atoms: _271  and  _272
REMARK  102  A    between atoms: _271  and  _274
REMARK  103  A    between atoms: _274  and  _275
REMARK  104  A    between atoms: _275  and  _276
REMARK  105  A    between atoms: _281  and  _283
REMARK  106  A    between atoms: _283  and  _284
REMARK  107  A    between atoms: _283  and  _286
REMARK  108  A    between atoms: _286  and  _287
REMARK  109  A    between atoms: _287  and  _288
REMARK  110  A    between atoms: _288  and  _289
REMARK  111  A    between atoms: _298  and  _300
REMARK  112  A    between atoms: _300  and  _301
REMARK  113  A    between atoms: _300  and  _303
REMARK  114  A    between atoms: _303  and  _304
REMARK  115  A    between atoms: _304  and  _305
REMARK  116  A    between atoms: _310  and  _312
REMARK  117  A    between atoms: _312  and  _313
REMARK  118  A    between atoms: _312  and  _315
REMARK  119  A    between atoms: _315  and  _316
REMARK                            x       y       z     vdW  Elec       q    Type
REMARK                         _______ _______ _______ _____ _____    ______ ____
ROOT
ATOM      1  O   HOH     1      15.055   8.816 -21.383  0.00  0.00    +0.000 OA
ENDROOT
TORSDOF 0
REMARK  Name = ../refined-set-2016/3afk/3afk_pocket.pdb
REMARK  119 active torsions:
REMARK  status: ('A' for Active; 'I' for Inactive)
REMARK    1  A    between atoms: _1  and  _3
REMARK    2  A    between atoms: _3  and  _4
REMARK    3  A    between atoms: _6  and  _8
REMARK    4  A    between atoms: _8  and  _9
REMARK    5  A    between atoms: _8  and  _11
REMARK    6  A    between atoms: _11  and  _12
REMARK    7  A    between atoms: _18  and  _19
REMARK    8  A    between atoms: _24  and  _26
REMARK    9  A    between atoms: _26  and  _27
REMARK   10  A    between atoms: _26  and  _29
REMARK   11  A    between atoms: _29  and  _30
REMARK   12  A    between atoms: _35  and  _37
REMARK   13  A    between atoms: _37  and  _38
REMARK   14  A    between atoms: _37  and  _40
REMARK   15  A    between atoms: _40  and  _41
REMARK   16  A    between atoms: _46  and  _48
REMARK   17  A    between atoms: _48  and  _49
REMARK   18  A    between atoms: _48  and  _51
REMARK   19  A    between atoms: _51  and  _52
REMARK   20  A    between atoms: _55  and  _57
REMARK   21  A    between atoms: _57  and  _58
REMARK   22  A    between atoms: _57  and  _60
REMARK   23  A    between atoms: _60  and  _61
REMARK   24  A    between atoms: _64  and  _66
REMARK   25  A    between atoms: _66  and  _67
REMARK   26  A    between atoms: _66  and  _69
REMARK   27  A    between atoms: _69  and  _70
REMARK   28  A    between atoms: _75  and  _77
REMARK   29  A    between atoms: _77  and  _78
REMARK   30  A    between atoms: _77  and  _80
REMARK   31  A    between atoms: _80  and  _81
REMARK   32  A    between atoms: _86  and  _87
REMARK   33  A    between atoms: _89  and  _91
REMARK   34  A    between atoms: _91  and  _92
REMARK   35  A    between atoms: _91  and  _94
REMARK   36  A    between atoms: _94  and  _95
REMARK   37  A    between atoms: _100  and  _102
REMARK   38  A    between atoms: _102  and  _103
REMARK   39  A    between atoms: _102  and  _105
REMARK   40  A    between atoms: _105  and  _106
REMARK   41  A    between atoms: _109  and  _111
REMARK   42  A    between atoms: _111  and  _112
REMARK   43  A    between atoms: _115  and  _117
REMARK   44  A    between atoms: _117  and  _118
REMARK   45  A    between atoms: _117  and  _120
REMARK   46  A    between atoms: _120  and  _121
REMARK   47  A    between atoms: _127  and  _129
REMARK   48  A    between atoms: _129  and  _130
REMARK   49  A    between atoms: _129  and  _132
REMARK   50  A    between atoms: _132  and  _133
REMARK   51  A    between atoms: _133  and  _134
REMARK   52  A    between atoms: _134  and  _135
REMARK   53  A    between atoms: _144  and  _146
REMARK   54  A    between atoms: _146  and  _147
REMARK   55  A    between atoms: _146  and  _149
REMARK   56  A    between atoms: _149  and  _150
REMARK   57  A    between atoms: _150  and  _151
REMARK   58  A    between atoms: _154  and  _156
REMARK   59  A    between atoms: _156  and  _157
REMARK   60  A    between atoms: _156  and  _159
REMARK   61  A    between atoms: _162  and  _164
REMARK   62  A    between atoms: _164  and  _165
REMARK   63  A    between atoms: _164  and  _167
REMARK   64  A    between atoms: _167  and  _168
REMARK   65  A    between atoms: _171  and  _173
REMARK   66  A    between atoms: _173  and  _174
REMARK   67  A    between atoms: _173  and  _176
REMARK   68  A    between atoms: _176  and  _177
REMARK   69  A    between atoms: _183  and  _185
REMARK   70  A    between atoms: _185  and  _186
REMARK   71  A    between atoms: _185  and  _188
REMARK   72  A    between atoms: _188  and  _189
REMARK   73  A    between atoms: _194  and  _196
REMARK   74  A    between atoms: _196  and  _197
REMARK   75  A    between atoms: _196  and  _199
REMARK   76  A    between atoms: _199  and  _200
REMARK   77  A    between atoms: _202  and  _204
REMARK   78  A    between atoms: _204  and  _205
REMARK   79  A    between atoms: _204  and  _207
REMARK   80  A    between atoms: _207  and  _208
REMARK   81  A    between atoms: _208  and  _209
REMARK   82  A    between atoms: _209  and  _210
REMARK   83  A    between atoms: _220  and  _221
REMARK   84  A    between atoms: _226  and  _228
REMARK   85  A    between atoms: _228  and  _229
REMARK   86  A    between atoms: _228  and  _231
REMARK   87  A    between atoms: _231  and  _232
REMARK   88  A    between atoms: _242  and  _244
REMARK   89  A    between atoms: _244  and  _245
REMARK   90  A    between atoms: _244  and  _247
REMARK   91  A    between atoms: _247  and  _248
REMARK   92  A    between atoms: _251  and  _253
REMARK   93  A    between atoms: _253  and  _254
REMARK   94  A    between atoms: _253  and  _256
REMARK   95  A    between atoms: _259  and  _261
REMARK   96  A    between atoms: _261  and  _262
REMARK   97  A    between atoms: _261  and  _264
REMARK   98  A    between atoms: _264  and  _265
REMARK   99  A    between atoms: _265  and  _266
REMARK  100  A    between atoms: _269  and  _271
REMARK  101  A    between atoms: _271  and  _272
REMARK  102  A    between atoms: _271  and  _274
REMARK  103  A    between atoms: _274  and  _275
REMARK  104  A    between atoms: _275  and  _276
REMARK  105  A    between atoms: _281  and  _283
REMARK  106  A    between atoms: _283  and  _284
REMARK  107  A    between atoms: _283  and  _286
REMARK  108  A    between atoms: _286  and  _287
REMARK  109  A    between atoms: _287  and  _288
REMARK  110  A    between atoms: _288  and  _289
REMARK  111  A    between atoms: _298  and  _300
REMARK  112  A    between atoms: _300  and  _301
REMARK  113  A    between atoms: _300  and  _303
REMARK  114  A    between atoms: _303  and  _304
REMARK  115  A    between atoms: _304  and  _305
REMARK  116  A    between atoms: _310  and  _312
REMARK  117  A    between atoms: _312  and  _313
REMARK  118  A    between atoms: _312  and  _315
REMARK  119  A    between atoms: _315  and  _316
REMARK                            x       y       z     vdW  Elec       q    Type
REMARK                         _______ _______ _______ _____ _____    ______ ____
ROOT
ATOM      1  O   HOH     1      19.756   7.571 -21.825  0.00  0.00    +0.000 OA
ENDROOT
TORSDOF 0
REMARK  Name = ../refined-set-2016/3afk/3afk_pocket.pdb
REMARK  119 active torsions:
REMARK  status: ('A' for Active; 'I' for Inactive)
REMARK    1  A    between atoms: _1  and  _3
REMARK    2  A    between atoms: _3  and  _4
REMARK    3  A    between atoms: _6  and  _8
REMARK    4  A    between atoms: _8  and  _9
REMARK    5  A    between atoms: _8  and  _11
REMARK    6  A    between atoms: _11  and  _12
REMARK    7  A    between atoms: _18  and  _19
REMARK    8  A    between atoms: _24  and  _26
REMARK    9  A    between atoms: _26  and  _27
REMARK   10  A    between atoms: _26  and  _29
REMARK   11  A    between atoms: _29  and  _30
REMARK   12  A    between atoms: _35  and  _37
REMARK   13  A    between atoms: _37  and  _38
REMARK   14  A    between atoms: _37  and  _40
REMARK   15  A    between atoms: _40  and  _41
REMARK   16  A    between atoms: _46  and  _48
REMARK   17  A    between atoms: _48  and  _49
REMARK   18  A    between atoms: _48  and  _51
REMARK   19  A    between atoms: _51  and  _52
REMARK   20  A    between atoms: _55  and  _57
REMARK   21  A    between atoms: _57  and  _58
REMARK   22  A    between atoms: _57  and  _60
REMARK   23  A    between atoms: _60  and  _61
REMARK   24  A    between atoms: _64  and  _66
REMARK   25  A    between atoms: _66  and  _67
REMARK   26  A    between atoms: _66  and  _69
REMARK   27  A    between atoms: _69  and  _70
REMARK   28  A    between atoms: _75  and  _77
REMARK   29  A    between atoms: _77  and  _78
REMARK   30  A    between atoms: _77  and  _80
REMARK   31  A    between atoms: _80  and  _81
REMARK   32  A    between atoms: _86  and  _87
REMARK   33  A    between atoms: _89  and  _91
REMARK   34  A    between atoms: _91  and  _92
REMARK   35  A    between atoms: _91  and  _94
REMARK   36  A    between atoms: _94  and  _95
REMARK   37  A    between atoms: _100  and  _102
REMARK   38  A    between atoms: _102  and  _103
REMARK   39  A    between atoms: _102  and  _105
REMARK   40  A    between atoms: _105  and  _106
REMARK   41  A    between atoms: _109  and  _111
REMARK   42  A    between atoms: _111  and  _112
REMARK   43  A    between atoms: _115  and  _117
REMARK   44  A    between atoms: _117  and  _118
REMARK   45  A    between atoms: _117  and  _120
REMARK   46  A    between atoms: _120  and  _121
REMARK   47  A    between atoms: _127  and  _129
REMARK   48  A    between atoms: _129  and  _130
REMARK   49  A    between atoms: _129  and  _132
REMARK   50  A    between atoms: _132  and  _133
REMARK   51  A    between atoms: _133  and  _134
REMARK   52  A    between atoms: _134  and  _135
REMARK   53  A    between atoms: _144  and  _146
REMARK   54  A    between atoms: _146  and  _147
REMARK   55  A    between atoms: _146  and  _149
REMARK   56  A    between atoms: _149  and  _150
REMARK   57  A    between atoms: _150  and  _151
REMARK   58  A    between atoms: _154  and  _156
REMARK   59  A    between atoms: _156  and  _157
REMARK   60  A    between atoms: _156  and  _159
REMARK   61  A    between atoms: _162  and  _164
REMARK   62  A    between atoms: _164  and  _165
REMARK   63  A    between atoms: _164  and  _167
REMARK   64  A    between atoms: _167  and  _168
REMARK   65  A    between atoms: _171  and  _173
REMARK   66  A    between atoms: _173  and  _174
REMARK   67  A    between atoms: _173  and  _176
REMARK   68  A    between atoms: _176  and  _177
REMARK   69  A    between atoms: _183  and  _185
REMARK   70  A    between atoms: _185  and  _186
REMARK   71  A    between atoms: _185  and  _188
REMARK   72  A    between atoms: _188  and  _189
REMARK   73  A    between atoms: _194  and  _196
REMARK   74  A    between atoms: _196  and  _197
REMARK   75  A    between atoms: _196  and  _199
REMARK   76  A    between atoms: _199  and  _200
REMARK   77  A    between atoms: _202  and  _204
REMARK   78  A    between atoms: _204  and  _205
REMARK   79  A    between atoms: _204  and  _207
REMARK   80  A    between atoms: _207  and  _208
REMARK   81  A    between atoms: _208  and  _209
REMARK   82  A    between atoms: _209  and  _210
REMARK   83  A    between atoms: _220  and  _221
REMARK   84  A    between atoms: _226  and  _228
REMARK   85  A    between atoms: _228  and  _229
REMARK   86  A    between atoms: _228  and  _231
REMARK   87  A    between atoms: _231  and  _232
REMARK   88  A    between atoms: _242  and  _244
REMARK   89  A    between atoms: _244  and  _245
REMARK   90  A    between atoms: _244  and  _247
REMARK   91  A    between atoms: _247  and  _248
REMARK   92  A    between atoms: _251  and  _253
REMARK   93  A    between atoms: _253  and  _254
REMARK   94  A    between atoms: _253  and  _256
REMARK   95  A    between atoms: _259  and  _261
REMARK   96  A    between atoms: _261  and  _262
REMARK   97  A    between atoms: _261  and  _264
REMARK   98  A    between atoms: _264  and  _265
REMARK   99  A    between atoms: _265  and  _266
REMARK  100  A    between atoms: _269  and  _271
REMARK  101  A    between atoms: _271  and  _272
REMARK  102  A    between atoms: _271  and  _274
REMARK  103  A    between atoms: _274  and  _275
REMARK  104  A    between atoms: _275  and  _276
REMARK  105  A    between atoms: _281  and  _283
REMARK  106  A    between atoms: _283  and  _284
REMARK  107  A    between atoms: _283  and  _286
REMARK  108  A    between atoms: _286  and  _287
REMARK  109  A    between atoms: _287  and  _288
REMARK  110  A    between atoms: _288  and  _289
REMARK  111  A    between atoms: _298  and  _300
REMARK  112  A    between atoms: _300  and  _301
REMARK  113  A    between atoms: _300  and  _303
REMARK  114  A    between atoms: _303  and  _304
REMARK  115  A    between atoms: _304  and  _305
REMARK  116  A    between atoms: _310  and  _312
REMARK  117  A    between atoms: _312  and  _313
REMARK  118  A    between atoms: _312  and  _315
REMARK  119  A    between atoms: _315  and  _316
REMARK                            x       y       z     vdW  Elec       q    Type
REMARK                         _______ _______ _______ _____ _____    ______ ____
ROOT
ATOM      1  O   HOH     1       6.708  11.692 -13.342  0.00  0.00    +0.000 OA
ENDROOT
TORSDOF 0
REMARK  Name = ../refined-set-2016/3afk/3afk_pocket.pdb
REMARK  119 active torsions:
REMARK  status: ('A' for Active; 'I' for Inactive)
REMARK    1  A    between atoms: _1  and  _3
REMARK    2  A    between atoms: _3  and  _4
REMARK    3  A    between atoms: _6  and  _8
REMARK    4  A    between atoms: _8  and  _9
REMARK    5  A    between atoms: _8  and  _11
REMARK    6  A    between atoms: _11  and  _12
REMARK    7  A    between atoms: _18  and  _19
REMARK    8  A    between atoms: _24  and  _26
REMARK    9  A    between atoms: _26  and  _27
REMARK   10  A    between atoms: _26  and  _29
REMARK   11  A    between atoms: _29  and  _30
REMARK   12  A    between atoms: _35  and  _37
REMARK   13  A    between atoms: _37  and  _38
REMARK   14  A    between atoms: _37  and  _40
REMARK   15  A    between atoms: _40  and  _41
REMARK   16  A    between atoms: _46  and  _48
REMARK   17  A    between atoms: _48  and  _49
REMARK   18  A    between atoms: _48  and  _51
REMARK   19  A    between atoms: _51  and  _52
REMARK   20  A    between atoms: _55  and  _57
REMARK   21  A    between atoms: _57  and  _58
REMARK   22  A    between atoms: _57  and  _60
REMARK   23  A    between atoms: _60  and  _61
REMARK   24  A    between atoms: _64  and  _66
REMARK   25  A    between atoms: _66  and  _67
REMARK   26  A    between atoms: _66  and  _69
REMARK   27  A    between atoms: _69  and  _70
REMARK   28  A    between atoms: _75  and  _77
REMARK   29  A    between atoms: _77  and  _78
REMARK   30  A    between atoms: _77  and  _80
REMARK   31  A    between atoms: _80  and  _81
REMARK   32  A    between atoms: _86  and  _87
REMARK   33  A    between atoms: _89  and  _91
REMARK   34  A    between atoms: _91  and  _92
REMARK   35  A    between atoms: _91  and  _94
REMARK   36  A    between atoms: _94  and  _95
REMARK   37  A    between atoms: _100  and  _102
REMARK   38  A    between atoms: _102  and  _103
REMARK   39  A    between atoms: _102  and  _105
REMARK   40  A    between atoms: _105  and  _106
REMARK   41  A    between atoms: _109  and  _111
REMARK   42  A    between atoms: _111  and  _112
REMARK   43  A    between atoms: _115  and  _117
REMARK   44  A    between atoms: _117  and  _118
REMARK   45  A    between atoms: _117  and  _120
REMARK   46  A    between atoms: _120  and  _121
REMARK   47  A    between atoms: _127  and  _129
REMARK   48  A    between atoms: _129  and  _130
REMARK   49  A    between atoms: _129  and  _132
REMARK   50  A    between atoms: _132  and  _133
REMARK   51  A    between atoms: _133  and  _134
REMARK   52  A    between atoms: _134  and  _135
REMARK   53  A    between atoms: _144  and  _146
REMARK   54  A    between atoms: _146  and  _147
REMARK   55  A    between atoms: _146  and  _149
REMARK   56  A    between atoms: _149  and  _150
REMARK   57  A    between atoms: _150  and  _151
REMARK   58  A    between atoms: _154  and  _156
REMARK   59  A    between atoms: _156  and  _157
REMARK   60  A    between atoms: _156  and  _159
REMARK   61  A    between atoms: _162  and  _164
REMARK   62  A    between atoms: _164  and  _165
REMARK   63  A    between atoms: _164  and  _167
REMARK   64  A    between atoms: _167  and  _168
REMARK   65  A    between atoms: _171  and  _173
REMARK   66  A    between atoms: _173  and  _174
REMARK   67  A    between atoms: _173  and  _176
REMARK   68  A    between atoms: _176  and  _177
REMARK   69  A    between atoms: _183  and  _185
REMARK   70  A    between atoms: _185  and  _186
REMARK   71  A    between atoms: _185  and  _188
REMARK   72  A    between atoms: _188  and  _189
REMARK   73  A    between atoms: _194  and  _196
REMARK   74  A    between atoms: _196  and  _197
REMARK   75  A    between atoms: _196  and  _199
REMARK   76  A    between atoms: _199  and  _200
REMARK   77  A    between atoms: _202  and  _204
REMARK   78  A    between atoms: _204  and  _205
REMARK   79  A    between atoms: _204  and  _207
REMARK   80  A    between atoms: _207  and  _208
REMARK   81  A    between atoms: _208  and  _209
REMARK   82  A    between atoms: _209  and  _210
REMARK   83  A    between atoms: _220  and  _221
REMARK   84  A    between atoms: _226  and  _228
REMARK   85  A    between atoms: _228  and  _229
REMARK   86  A    between atoms: _228  and  _231
REMARK   87  A    between atoms: _231  and  _232
REMARK   88  A    between atoms: _242  and  _244
REMARK   89  A    between atoms: _244  and  _245
REMARK   90  A    between atoms: _244  and  _247
REMARK   91  A    between atoms: _247  and  _248
REMARK   92  A    between atoms: _251  and  _253
REMARK   93  A    between atoms: _253  and  _254
REMARK   94  A    between atoms: _253  and  _256
REMARK   95  A    between atoms: _259  and  _261
REMARK   96  A    between atoms: _261  and  _262
REMARK   97  A    between atoms: _261  and  _264
REMARK   98  A    between atoms: _264  and  _265
REMARK   99  A    between atoms: _265  and  _266
REMARK  100  A    between atoms: _269  and  _271
REMARK  101  A    between atoms: _271  and  _272
REMARK  102  A    between atoms: _271  and  _274
REMARK  103  A    between atoms: _274  and  _275
REMARK  104  A    between atoms: _275  and  _276
REMARK  105  A    between atoms: _281  and  _283
REMARK  106  A    between atoms: _283  and  _284
REMARK  107  A    between atoms: _283  and  _286
REMARK  108  A    between atoms: _286  and  _287
REMARK  109  A    between atoms: _287  and  _288
REMARK  110  A    between atoms: _288  and  _289
REMARK  111  A    between atoms: _298  and  _300
REMARK  112  A    between atoms: _300  and  _301
REMARK  113  A    between atoms: _300  and  _303
REMARK  114  A    between atoms: _303  and  _304
REMARK  115  A    between atoms: _304  and  _305
REMARK  116  A    between atoms: _310  and  _312
REMARK  117  A    between atoms: _312  and  _313
REMARK  118  A    between atoms: _312  and  _315
REMARK  119  A    between atoms: _315  and  _316
REMARK                            x       y       z     vdW  Elec       q    Type
REMARK                         _______ _______ _______ _____ _____    ______ ____
ROOT
ATOM      1  O   HOH     1       9.537  11.426 -19.303  0.00  0.00    +0.000 OA
ENDROOT
TORSDOF 0
REMARK  Name = ../refined-set-2016/3afk/3afk_pocket.pdb
REMARK  119 active torsions:
REMARK  status: ('A' for Active; 'I' for Inactive)
REMARK    1  A    between atoms: _1  and  _3
REMARK    2  A    between atoms: _3  and  _4
REMARK    3  A    between atoms: _6  and  _8
REMARK    4  A    between atoms: _8  and  _9
REMARK    5  A    between atoms: _8  and  _11
REMARK    6  A    between atoms: _11  and  _12
REMARK    7  A    between atoms: _18  and  _19
REMARK    8  A    between atoms: _24  and  _26
REMARK    9  A    between atoms: _26  and  _27
REMARK   10  A    between atoms: _26  and  _29
REMARK   11  A    between atoms: _29  and  _30
REMARK   12  A    between atoms: _35  and  _37
REMARK   13  A    between atoms: _37  and  _38
REMARK   14  A    between atoms: _37  and  _40
REMARK   15  A    between atoms: _40  and  _41
REMARK   16  A    between atoms: _46  and  _48
REMARK   17  A    between atoms: _48  and  _49
REMARK   18  A    between atoms: _48  and  _51
REMARK   19  A    between atoms: _51  and  _52
REMARK   20  A    between atoms: _55  and  _57
REMARK   21  A    between atoms: _57  and  _58
REMARK   22  A    between atoms: _57  and  _60
REMARK   23  A    between atoms: _60  and  _61
REMARK   24  A    between atoms: _64  and  _66
REMARK   25  A    between atoms: _66  and  _67
REMARK   26  A    between atoms: _66  and  _69
REMARK   27  A    between atoms: _69  and  _70
REMARK   28  A    between atoms: _75  and  _77
REMARK   29  A    between atoms: _77  and  _78
REMARK   30  A    between atoms: _77  and  _80
REMARK   31  A    between atoms: _80  and  _81
REMARK   32  A    between atoms: _86  and  _87
REMARK   33  A    between atoms: _89  and  _91
REMARK   34  A    between atoms: _91  and  _92
REMARK   35  A    between atoms: _91  and  _94
REMARK   36  A    between atoms: _94  and  _95
REMARK   37  A    between atoms: _100  and  _102
REMARK   38  A    between atoms: _102  and  _103
REMARK   39  A    between atoms: _102  and  _105
REMARK   40  A    between atoms: _105  and  _106
REMARK   41  A    between atoms: _109  and  _111
REMARK   42  A    between atoms: _111  and  _112
REMARK   43  A    between atoms: _115  and  _117
REMARK   44  A    between atoms: _117  and  _118
REMARK   45  A    between atoms: _117  and  _120
REMARK   46  A    between atoms: _120  and  _121
REMARK   47  A    between atoms: _127  and  _129
REMARK   48  A    between atoms: _129  and  _130
REMARK   49  A    between atoms: _129  and  _132
REMARK   50  A    between atoms: _132  and  _133
REMARK   51  A    between atoms: _133  and  _134
REMARK   52  A    between atoms: _134  and  _135
REMARK   53  A    between atoms: _144  and  _146
REMARK   54  A    between atoms: _146  and  _147
REMARK   55  A    between atoms: _146  and  _149
REMARK   56  A    between atoms: _149  and  _150
REMARK   57  A    between atoms: _150  and  _151
REMARK   58  A    between atoms: _154  and  _156
REMARK   59  A    between atoms: _156  and  _157
REMARK   60  A    between atoms: _156  and  _159
REMARK   61  A    between atoms: _162  and  _164
REMARK   62  A    between atoms: _164  and  _165
REMARK   63  A    between atoms: _164  and  _167
REMARK   64  A    between atoms: _167  and  _168
REMARK   65  A    between atoms: _171  and  _173
REMARK   66  A    between atoms: _173  and  _174
REMARK   67  A    between atoms: _173  and  _176
REMARK   68  A    between atoms: _176  and  _177
REMARK   69  A    between atoms: _183  and  _185
REMARK   70  A    between atoms: _185  and  _186
REMARK   71  A    between atoms: _185  and  _188
REMARK   72  A    between atoms: _188  and  _189
REMARK   73  A    between atoms: _194  and  _196
REMARK   74  A    between atoms: _196  and  _197
REMARK   75  A    between atoms: _196  and  _199
REMARK   76  A    between atoms: _199  and  _200
REMARK   77  A    between atoms: _202  and  _204
REMARK   78  A    between atoms: _204  and  _205
REMARK   79  A    between atoms: _204  and  _207
REMARK   80  A    between atoms: _207  and  _208
REMARK   81  A    between atoms: _208  and  _209
REMARK   82  A    between atoms: _209  and  _210
REMARK   83  A    between atoms: _220  and  _221
REMARK   84  A    between atoms: _226  and  _228
REMARK   85  A    between atoms: _228  and  _229
REMARK   86  A    between atoms: _228  and  _231
REMARK   87  A    between atoms: _231  and  _232
REMARK   88  A    between atoms: _242  and  _244
REMARK   89  A    between atoms: _244  and  _245
REMARK   90  A    between atoms: _244  and  _247
REMARK   91  A    between atoms: _247  and  _248
REMARK   92  A    between atoms: _251  and  _253
REMARK   93  A    between atoms: _253  and  _254
REMARK   94  A    between atoms: _253  and  _256
REMARK   95  A    between atoms: _259  and  _261
REMARK   96  A    between atoms: _261  and  _262
REMARK   97  A    between atoms: _261  and  _264
REMARK   98  A    between atoms: _264  and  _265
REMARK   99  A    between atoms: _265  and  _266
REMARK  100  A    between atoms: _269  and  _271
REMARK  101  A    between atoms: _271  and  _272
REMARK  102  A    between atoms: _271  and  _274
REMARK  103  A    between atoms: _274  and  _275
REMARK  104  A    between atoms: _275  and  _276
REMARK  105  A    between atoms: _281  and  _283
REMARK  106  A    between atoms: _283  and  _284
REMARK  107  A    between atoms: _283  and  _286
REMARK  108  A    between atoms: _286  and  _287
REMARK  109  A    between atoms: _287  and  _288
REMARK  110  A    between atoms: _288  and  _289
REMARK  111  A    between atoms: _298  and  _300
REMARK  112  A    between atoms: _300  and  _301
REMARK  113  A    between atoms: _300  and  _303
REMARK  114  A    between atoms: _303  and  _304
REMARK  115  A    between atoms: _304  and  _305
REMARK  116  A    between atoms: _310  and  _312
REMARK  117  A    between atoms: _312  and  _313
REMARK  118  A    between atoms: _312  and  _315
REMARK  119  A    between atoms: _315  and  _316
REMARK                            x       y       z     vdW  Elec       q    Type
REMARK                         _______ _______ _______ _____ _____    ______ ____
ROOT
ATOM      1  O   HOH     1      18.148  -0.553 -18.581  0.00  0.00    +0.000 OA
ENDROOT
TORSDOF 0
REMARK  Name = ../refined-set-2016/3afk/3afk_pocket.pdb
REMARK  119 active torsions:
REMARK  status: ('A' for Active; 'I' for Inactive)
REMARK    1  A    between atoms: _1  and  _3
REMARK    2  A    between atoms: _3  and  _4
REMARK    3  A    between atoms: _6  and  _8
REMARK    4  A    between atoms: _8  and  _9
REMARK    5  A    between atoms: _8  and  _11
REMARK    6  A    between atoms: _11  and  _12
REMARK    7  A    between atoms: _18  and  _19
REMARK    8  A    between atoms: _24  and  _26
REMARK    9  A    between atoms: _26  and  _27
REMARK   10  A    between atoms: _26  and  _29
REMARK   11  A    between atoms: _29  and  _30
REMARK   12  A    between atoms: _35  and  _37
REMARK   13  A    between atoms: _37  and  _38
REMARK   14  A    between atoms: _37  and  _40
REMARK   15  A    between atoms: _40  and  _41
REMARK   16  A    between atoms: _46  and  _48
REMARK   17  A    between atoms: _48  and  _49
REMARK   18  A    between atoms: _48  and  _51
REMARK   19  A    between atoms: _51  and  _52
REMARK   20  A    between atoms: _55  and  _57
REMARK   21  A    between atoms: _57  and  _58
REMARK   22  A    between atoms: _57  and  _60
REMARK   23  A    between atoms: _60  and  _61
REMARK   24  A    between atoms: _64  and  _66
REMARK   25  A    between atoms: _66  and  _67
REMARK   26  A    between atoms: _66  and  _69
REMARK   27  A    between atoms: _69  and  _70
REMARK   28  A    between atoms: _75  and  _77
REMARK   29  A    between atoms: _77  and  _78
REMARK   30  A    between atoms: _77  and  _80
REMARK   31  A    between atoms: _80  and  _81
REMARK   32  A    between atoms: _86  and  _87
REMARK   33  A    between atoms: _89  and  _91
REMARK   34  A    between atoms: _91  and  _92
REMARK   35  A    between atoms: _91  and  _94
REMARK   36  A    between atoms: _94  and  _95
REMARK   37  A    between atoms: _100  and  _102
REMARK   38  A    between atoms: _102  and  _103
REMARK   39  A    between atoms: _102  and  _105
REMARK   40  A    between atoms: _105  and  _106
REMARK   41  A    between atoms: _109  and  _111
REMARK   42  A    between atoms: _111  and  _112
REMARK   43  A    between atoms: _115  and  _117
REMARK   44  A    between atoms: _117  and  _118
REMARK   45  A    between atoms: _117  and  _120
REMARK   46  A    between atoms: _120  and  _121
REMARK   47  A    between atoms: _127  and  _129
REMARK   48  A    between atoms: _129  and  _130
REMARK   49  A    between atoms: _129  and  _132
REMARK   50  A    between atoms: _132  and  _133
REMARK   51  A    between atoms: _133  and  _134
REMARK   52  A    between atoms: _134  and  _135
REMARK   53  A    between atoms: _144  and  _146
REMARK   54  A    between atoms: _146  and  _147
REMARK   55  A    between atoms: _146  and  _149
REMARK   56  A    between atoms: _149  and  _150
REMARK   57  A    between atoms: _150  and  _151
REMARK   58  A    between atoms: _154  and  _156
REMARK   59  A    between atoms: _156  and  _157
REMARK   60  A    between atoms: _156  and  _159
REMARK   61  A    between atoms: _162  and  _164
REMARK   62  A    between atoms: _164  and  _165
REMARK   63  A    between atoms: _164  and  _167
REMARK   64  A    between atoms: _167  and  _168
REMARK   65  A    between atoms: _171  and  _173
REMARK   66  A    between atoms: _173  and  _174
REMARK   67  A    between atoms: _173  and  _176
REMARK   68  A    between atoms: _176  and  _177
REMARK   69  A    between atoms: _183  and  _185
REMARK   70  A    between atoms: _185  and  _186
REMARK   71  A    between atoms: _185  and  _188
REMARK   72  A    between atoms: _188  and  _189
REMARK   73  A    between atoms: _194  and  _196
REMARK   74  A    between atoms: _196  and  _197
REMARK   75  A    between atoms: _196  and  _199
REMARK   76  A    between atoms: _199  and  _200
REMARK   77  A    between atoms: _202  and  _204
REMARK   78  A    between atoms: _204  and  _205
REMARK   79  A    between atoms: _204  and  _207
REMARK   80  A    between atoms: _207  and  _208
REMARK   81  A    between atoms: _208  and  _209
REMARK   82  A    between atoms: _209  and  _210
REMARK   83  A    between atoms: _220  and  _221
REMARK   84  A    between atoms: _226  and  _228
REMARK   85  A    between atoms: _228  and  _229
REMARK   86  A    between atoms: _228  and  _231
REMARK   87  A    between atoms: _231  and  _232
REMARK   88  A    between atoms: _242  and  _244
REMARK   89  A    between atoms: _244  and  _245
REMARK   90  A    between atoms: _244  and  _247
REMARK   91  A    between atoms: _247  and  _248
REMARK   92  A    between atoms: _251  and  _253
REMARK   93  A    between atoms: _253  and  _254
REMARK   94  A    between atoms: _253  and  _256
REMARK   95  A    between atoms: _259  and  _261
REMARK   96  A    between atoms: _261  and  _262
REMARK   97  A    between atoms: _261  and  _264
REMARK   98  A    between atoms: _264  and  _265
REMARK   99  A    between atoms: _265  and  _266
REMARK  100  A    between atoms: _269  and  _271
REMARK  101  A    between atoms: _271  and  _272
REMARK  102  A    between atoms: _271  and  _274
REMARK  103  A    between atoms: _274  and  _275
REMARK  104  A    between atoms: _275  and  _276
REMARK  105  A    between atoms: _281  and  _283
REMARK  106  A    between atoms: _283  and  _284
REMARK  107  A    between atoms: _283  and  _286
REMARK  108  A    between atoms: _286  and  _287
REMARK  109  A    between atoms: _287  and  _288
REMARK  110  A    between atoms: _288  and  _289
REMARK  111  A    between atoms: _298  and  _300
REMARK  112  A    between atoms: _300  and  _301
REMARK  113  A    between atoms: _300  and  _303
REMARK  114  A    between atoms: _303  and  _304
REMARK  115  A    between atoms: _304  and  _305
REMARK  116  A    between atoms: _310  and  _312
REMARK  117  A    between atoms: _312  and  _313
REMARK  118  A    between atoms: _312  and  _315
REMARK  119  A    between atoms: _315  and  _316
REMARK                            x       y       z     vdW  Elec       q    Type
REMARK                         _______ _______ _______ _____ _____    ______ ____
ROOT
ATOM      1  O   HOH     1       7.490  10.654 -17.664  0.00  0.00    +0.000 OA
ENDROOT
TORSDOF 0
REMARK  Name = ../refined-set-2016/3afk/3afk_pocket.pdb
REMARK  119 active torsions:
REMARK  status: ('A' for Active; 'I' for Inactive)
REMARK    1  A    between atoms: _1  and  _3
REMARK    2  A    between atoms: _3  and  _4
REMARK    3  A    between atoms: _6  and  _8
REMARK    4  A    between atoms: _8  and  _9
REMARK    5  A    between atoms: _8  and  _11
REMARK    6  A    between atoms: _11  and  _12
REMARK    7  A    between atoms: _18  and  _19
REMARK    8  A    between atoms: _24  and  _26
REMARK    9  A    between atoms: _26  and  _27
REMARK   10  A    between atoms: _26  and  _29
REMARK   11  A    between atoms: _29  and  _30
REMARK   12  A    between atoms: _35  and  _37
REMARK   13  A    between atoms: _37  and  _38
REMARK   14  A    between atoms: _37  and  _40
REMARK   15  A    between atoms: _40  and  _41
REMARK   16  A    between atoms: _46  and  _48
REMARK   17  A    between atoms: _48  and  _49
REMARK   18  A    between atoms: _48  and  _51
REMARK   19  A    between atoms: _51  and  _52
REMARK   20  A    between atoms: _55  and  _57
REMARK   21  A    between atoms: _57  and  _58
REMARK   22  A    between atoms: _57  and  _60
REMARK   23  A    between atoms: _60  and  _61
REMARK   24  A    between atoms: _64  and  _66
REMARK   25  A    between atoms: _66  and  _67
REMARK   26  A    between atoms: _66  and  _69
REMARK   27  A    between atoms: _69  and  _70
REMARK   28  A    between atoms: _75  and  _77
REMARK   29  A    between atoms: _77  and  _78
REMARK   30  A    between atoms: _77  and  _80
REMARK   31  A    between atoms: _80  and  _81
REMARK   32  A    between atoms: _86  and  _87
REMARK   33  A    between atoms: _89  and  _91
REMARK   34  A    between atoms: _91  and  _92
REMARK   35  A    between atoms: _91  and  _94
REMARK   36  A    between atoms: _94  and  _95
REMARK   37  A    between atoms: _100  and  _102
REMARK   38  A    between atoms: _102  and  _103
REMARK   39  A    between atoms: _102  and  _105
REMARK   40  A    between atoms: _105  and  _106
REMARK   41  A    between atoms: _109  and  _111
REMARK   42  A    between atoms: _111  and  _112
REMARK   43  A    between atoms: _115  and  _117
REMARK   44  A    between atoms: _117  and  _118
REMARK   45  A    between atoms: _117  and  _120
REMARK   46  A    between atoms: _120  and  _121
REMARK   47  A    between atoms: _127  and  _129
REMARK   48  A    between atoms: _129  and  _130
REMARK   49  A    between atoms: _129  and  _132
REMARK   50  A    between atoms: _132  and  _133
REMARK   51  A    between atoms: _133  and  _134
REMARK   52  A    between atoms: _134  and  _135
REMARK   53  A    between atoms: _144  and  _146
REMARK   54  A    between atoms: _146  and  _147
REMARK   55  A    between atoms: _146  and  _149
REMARK   56  A    between atoms: _149  and  _150
REMARK   57  A    between atoms: _150  and  _151
REMARK   58  A    between atoms: _154  and  _156
REMARK   59  A    between atoms: _156  and  _157
REMARK   60  A    between atoms: _156  and  _159
REMARK   61  A    between atoms: _162  and  _164
REMARK   62  A    between atoms: _164  and  _165
REMARK   63  A    between atoms: _164  and  _167
REMARK   64  A    between atoms: _167  and  _168
REMARK   65  A    between atoms: _171  and  _173
REMARK   66  A    between atoms: _173  and  _174
REMARK   67  A    between atoms: _173  and  _176
REMARK   68  A    between atoms: _176  and  _177
REMARK   69  A    between atoms: _183  and  _185
REMARK   70  A    between atoms: _185  and  _186
REMARK   71  A    between atoms: _185  and  _188
REMARK   72  A    between atoms: _188  and  _189
REMARK   73  A    between atoms: _194  and  _196
REMARK   74  A    between atoms: _196  and  _197
REMARK   75  A    between atoms: _196  and  _199
REMARK   76  A    between atoms: _199  and  _200
REMARK   77  A    between atoms: _202  and  _204
REMARK   78  A    between atoms: _204  and  _205
REMARK   79  A    between atoms: _204  and  _207
REMARK   80  A    between atoms: _207  and  _208
REMARK   81  A    between atoms: _208  and  _209
REMARK   82  A    between atoms: _209  and  _210
REMARK   83  A    between atoms: _220  and  _221
REMARK   84  A    between atoms: _226  and  _228
REMARK   85  A    between atoms: _228  and  _229
REMARK   86  A    between atoms: _228  and  _231
REMARK   87  A    between atoms: _231  and  _232
REMARK   88  A    between atoms: _242  and  _244
REMARK   89  A    between atoms: _244  and  _245
REMARK   90  A    between atoms: _244  and  _247
REMARK   91  A    between atoms: _247  and  _248
REMARK   92  A    between atoms: _251  and  _253
REMARK   93  A    between atoms: _253  and  _254
REMARK   94  A    between atoms: _253  and  _256
REMARK   95  A    between atoms: _259  and  _261
REMARK   96  A    between atoms: _261  and  _262
REMARK   97  A    between atoms: _261  and  _264
REMARK   98  A    between atoms: _264  and  _265
REMARK   99  A    between atoms: _265  and  _266
REMARK  100  A    between atoms: _269  and  _271
REMARK  101  A    between atoms: _271  and  _272
REMARK  102  A    between atoms: _271  and  _274
REMARK  103  A    between atoms: _274  and  _275
REMARK  104  A    between atoms: _275  and  _276
REMARK  105  A    between atoms: _281  and  _283
REMARK  106  A    between atoms: _283  and  _284
REMARK  107  A    between atoms: _283  and  _286
REMARK  108  A    between atoms: _286  and  _287
REMARK  109  A    between atoms: _287  and  _288
REMARK  110  A    between atoms: _288  and  _289
REMARK  111  A    between atoms: _298  and  _300
REMARK  112  A    between atoms: _300  and  _301
REMARK  113  A    between atoms: _300  and  _303
REMARK  114  A    between atoms: _303  and  _304
REMARK  115  A    between atoms: _304  and  _305
REMARK  116  A    between atoms: _310  and  _312
REMARK  117  A    between atoms: _312  and  _313
REMARK  118  A    between atoms: _312  and  _315
REMARK  119  A    between atoms: _315  and  _316
REMARK                            x       y       z     vdW  Elec       q    Type
REMARK                         _______ _______ _______ _____ _____    ______ ____
ROOT
ATOM      1  O   HOH     1      10.499   0.621 -20.620  0.00  0.00    +0.000 OA
ENDROOT
TORSDOF 0
REMARK  Name = ../refined-set-2016/3afk/3afk_pocket.pdb
REMARK  119 active torsions:
REMARK  status: ('A' for Active; 'I' for Inactive)
REMARK    1  A    between atoms: _1  and  _3
REMARK    2  A    between atoms: _3  and  _4
REMARK    3  A    between atoms: _6  and  _8
REMARK    4  A    between atoms: _8  and  _9
REMARK    5  A    between atoms: _8  and  _11
REMARK    6  A    between atoms: _11  and  _12
REMARK    7  A    between atoms: _18  and  _19
REMARK    8  A    between atoms: _24  and  _26
REMARK    9  A    between atoms: _26  and  _27
REMARK   10  A    between atoms: _26  and  _29
REMARK   11  A    between atoms: _29  and  _30
REMARK   12  A    between atoms: _35  and  _37
REMARK   13  A    between atoms: _37  and  _38
REMARK   14  A    between atoms: _37  and  _40
REMARK   15  A    between atoms: _40  and  _41
REMARK   16  A    between atoms: _46  and  _48
REMARK   17  A    between atoms: _48  and  _49
REMARK   18  A    between atoms: _48  and  _51
REMARK   19  A    between atoms: _51  and  _52
REMARK   20  A    between atoms: _55  and  _57
REMARK   21  A    between atoms: _57  and  _58
REMARK   22  A    between atoms: _57  and  _60
REMARK   23  A    between atoms: _60  and  _61
REMARK   24  A    between atoms: _64  and  _66
REMARK   25  A    between atoms: _66  and  _67
REMARK   26  A    between atoms: _66  and  _69
REMARK   27  A    between atoms: _69  and  _70
REMARK   28  A    between atoms: _75  and  _77
REMARK   29  A    between atoms: _77  and  _78
REMARK   30  A    between atoms: _77  and  _80
REMARK   31  A    between atoms: _80  and  _81
REMARK   32  A    between atoms: _86  and  _87
REMARK   33  A    between atoms: _89  and  _91
REMARK   34  A    between atoms: _91  and  _92
REMARK   35  A    between atoms: _91  and  _94
REMARK   36  A    between atoms: _94  and  _95
REMARK   37  A    between atoms: _100  and  _102
REMARK   38  A    between atoms: _102  and  _103
REMARK   39  A    between atoms: _102  and  _105
REMARK   40  A    between atoms: _105  and  _106
REMARK   41  A    between atoms: _109  and  _111
REMARK   42  A    between atoms: _111  and  _112
REMARK   43  A    between atoms: _115  and  _117
REMARK   44  A    between atoms: _117  and  _118
REMARK   45  A    between atoms: _117  and  _120
REMARK   46  A    between atoms: _120  and  _121
REMARK   47  A    between atoms: _127  and  _129
REMARK   48  A    between atoms: _129  and  _130
REMARK   49  A    between atoms: _129  and  _132
REMARK   50  A    between atoms: _132  and  _133
REMARK   51  A    between atoms: _133  and  _134
REMARK   52  A    between atoms: _134  and  _135
REMARK   53  A    between atoms: _144  and  _146
REMARK   54  A    between atoms: _146  and  _147
REMARK   55  A    between atoms: _146  and  _149
REMARK   56  A    between atoms: _149  and  _150
REMARK   57  A    between atoms: _150  and  _151
REMARK   58  A    between atoms: _154  and  _156
REMARK   59  A    between atoms: _156  and  _157
REMARK   60  A    between atoms: _156  and  _159
REMARK   61  A    between atoms: _162  and  _164
REMARK   62  A    between atoms: _164  and  _165
REMARK   63  A    between atoms: _164  and  _167
REMARK   64  A    between atoms: _167  and  _168
REMARK   65  A    between atoms: _171  and  _173
REMARK   66  A    between atoms: _173  and  _174
REMARK   67  A    between atoms: _173  and  _176
REMARK   68  A    between atoms: _176  and  _177
REMARK   69  A    between atoms: _183  and  _185
REMARK   70  A    between atoms: _185  and  _186
REMARK   71  A    between atoms: _185  and  _188
REMARK   72  A    between atoms: _188  and  _189
REMARK   73  A    between atoms: _194  and  _196
REMARK   74  A    between atoms: _196  and  _197
REMARK   75  A    between atoms: _196  and  _199
REMARK   76  A    between atoms: _199  and  _200
REMARK   77  A    between atoms: _202  and  _204
REMARK   78  A    between atoms: _204  and  _205
REMARK   79  A    between atoms: _204  and  _207
REMARK   80  A    between atoms: _207  and  _208
REMARK   81  A    between atoms: _208  and  _209
REMARK   82  A    between atoms: _209  and  _210
REMARK   83  A    between atoms: _220  and  _221
REMARK   84  A    between atoms: _226  and  _228
REMARK   85  A    between atoms: _228  and  _229
REMARK   86  A    between atoms: _228  and  _231
REMARK   87  A    between atoms: _231  and  _232
REMARK   88  A    between atoms: _242  and  _244
REMARK   89  A    between atoms: _244  and  _245
REMARK   90  A    between atoms: _244  and  _247
REMARK   91  A    between atoms: _247  and  _248
REMARK   92  A    between atoms: _251  and  _253
REMARK   93  A    between atoms: _253  and  _254
REMARK   94  A    between atoms: _253  and  _256
REMARK   95  A    between atoms: _259  and  _261
REMARK   96  A    between atoms: _261  and  _262
REMARK   97  A    between atoms: _261  and  _264
REMARK   98  A    between atoms: _264  and  _265
REMARK   99  A    between atoms: _265  and  _266
REMARK  100  A    between atoms: _269  and  _271
REMARK  101  A    between atoms: _271  and  _272
REMARK  102  A    between atoms: _271  and  _274
REMARK  103  A    between atoms: _274  and  _275
REMARK  104  A    between atoms: _275  and  _276
REMARK  105  A    between atoms: _281  and  _283
REMARK  106  A    between atoms: _283  and  _284
REMARK  107  A    between atoms: _283  and  _286
REMARK  108  A    between atoms: _286  and  _287
REMARK  109  A    between atoms: _287  and  _288
REMARK  110  A    between atoms: _288  and  _289
REMARK  111  A    between atoms: _298  and  _300
REMARK  112  A    between atoms: _300  and  _301
REMARK  113  A    between atoms: _300  and  _303
REMARK  114  A    between atoms: _303  and  _304
REMARK  115  A    between atoms: _304  and  _305
REMARK  116  A    between atoms: _310  and  _312
REMARK  117  A    between atoms: _312  and  _313
REMARK  118  A    between atoms: _312  and  _315
REMARK  119  A    between atoms: _315  and  _316
REMARK                            x       y       z     vdW  Elec       q    Type
REMARK                         _______ _______ _______ _____ _____    ______ ____
ROOT
ATOM      1  O   HOH     1      16.749   4.330 -19.373  0.00  0.00    +0.000 OA
ENDROOT
TORSDOF 0
REMARK  Name = ../refined-set-2016/3afk/3afk_pocket.pdb
REMARK  119 active torsions:
REMARK  status: ('A' for Active; 'I' for Inactive)
REMARK    1  A    between atoms: _1  and  _3
REMARK    2  A    between atoms: _3  and  _4
REMARK    3  A    between atoms: _6  and  _8
REMARK    4  A    between atoms: _8  and  _9
REMARK    5  A    between atoms: _8  and  _11
REMARK    6  A    between atoms: _11  and  _12
REMARK    7  A    between atoms: _18  and  _19
REMARK    8  A    between atoms: _24  and  _26
REMARK    9  A    between atoms: _26  and  _27
REMARK   10  A    between atoms: _26  and  _29
REMARK   11  A    between atoms: _29  and  _30
REMARK   12  A    between atoms: _35  and  _37
REMARK   13  A    between atoms: _37  and  _38
REMARK   14  A    between atoms: _37  and  _40
REMARK   15  A    between atoms: _40  and  _41
REMARK   16  A    between atoms: _46  and  _48
REMARK   17  A    between atoms: _48  and  _49
REMARK   18  A    between atoms: _48  and  _51
REMARK   19  A    between atoms: _51  and  _52
REMARK   20  A    between atoms: _55  and  _57
REMARK   21  A    between atoms: _57  and  _58
REMARK   22  A    between atoms: _57  and  _60
REMARK   23  A    between atoms: _60  and  _61
REMARK   24  A    between atoms: _64  and  _66
REMARK   25  A    between atoms: _66  and  _67
REMARK   26  A    between atoms: _66  and  _69
REMARK   27  A    between atoms: _69  and  _70
REMARK   28  A    between atoms: _75  and  _77
REMARK   29  A    between atoms: _77  and  _78
REMARK   30  A    between atoms: _77  and  _80
REMARK   31  A    between atoms: _80  and  _81
REMARK   32  A    between atoms: _86  and  _87
REMARK   33  A    between atoms: _89  and  _91
REMARK   34  A    between atoms: _91  and  _92
REMARK   35  A    between atoms: _91  and  _94
REMARK   36  A    between atoms: _94  and  _95
REMARK   37  A    between atoms: _100  and  _102
REMARK   38  A    between atoms: _102  and  _103
REMARK   39  A    between atoms: _102  and  _105
REMARK   40  A    between atoms: _105  and  _106
REMARK   41  A    between atoms: _109  and  _111
REMARK   42  A    between atoms: _111  and  _112
REMARK   43  A    between atoms: _115  and  _117
REMARK   44  A    between atoms: _117  and  _118
REMARK   45  A    between atoms: _117  and  _120
REMARK   46  A    between atoms: _120  and  _121
REMARK   47  A    between atoms: _127  and  _129
REMARK   48  A    between atoms: _129  and  _130
REMARK   49  A    between atoms: _129  and  _132
REMARK   50  A    between atoms: _132  and  _133
REMARK   51  A    between atoms: _133  and  _134
REMARK   52  A    between atoms: _134  and  _135
REMARK   53  A    between atoms: _144  and  _146
REMARK   54  A    between atoms: _146  and  _147
REMARK   55  A    between atoms: _146  and  _149
REMARK   56  A    between atoms: _149  and  _150
REMARK   57  A    between atoms: _150  and  _151
REMARK   58  A    between atoms: _154  and  _156
REMARK   59  A    between atoms: _156  and  _157
REMARK   60  A    between atoms: _156  and  _159
REMARK   61  A    between atoms: _162  and  _164
REMARK   62  A    between atoms: _164  and  _165
REMARK   63  A    between atoms: _164  and  _167
REMARK   64  A    between atoms: _167  and  _168
REMARK   65  A    between atoms: _171  and  _173
REMARK   66  A    between atoms: _173  and  _174
REMARK   67  A    between atoms: _173  and  _176
REMARK   68  A    between atoms: _176  and  _177
REMARK   69  A    between atoms: _183  and  _185
REMARK   70  A    between atoms: _185  and  _186
REMARK   71  A    between atoms: _185  and  _188
REMARK   72  A    between atoms: _188  and  _189
REMARK   73  A    between atoms: _194  and  _196
REMARK   74  A    between atoms: _196  and  _197
REMARK   75  A    between atoms: _196  and  _199
REMARK   76  A    between atoms: _199  and  _200
REMARK   77  A    between atoms: _202  and  _204
REMARK   78  A    between atoms: _204  and  _205
REMARK   79  A    between atoms: _204  and  _207
REMARK   80  A    between atoms: _207  and  _208
REMARK   81  A    between atoms: _208  and  _209
REMARK   82  A    between atoms: _209  and  _210
REMARK   83  A    between atoms: _220  and  _221
REMARK   84  A    between atoms: _226  and  _228
REMARK   85  A    between atoms: _228  and  _229
REMARK   86  A    between atoms: _228  and  _231
REMARK   87  A    between atoms: _231  and  _232
REMARK   88  A    between atoms: _242  and  _244
REMARK   89  A    between atoms: _244  and  _245
REMARK   90  A    between atoms: _244  and  _247
REMARK   91  A    between atoms: _247  and  _248
REMARK   92  A    between atoms: _251  and  _253
REMARK   93  A    between atoms: _253  and  _254
REMARK   94  A    between atoms: _253  and  _256
REMARK   95  A    between atoms: _259  and  _261
REMARK   96  A    between atoms: _261  and  _262
REMARK   97  A    between atoms: _261  and  _264
REMARK   98  A    between atoms: _264  and  _265
REMARK   99  A    between atoms: _265  and  _266
REMARK  100  A    between atoms: _269  and  _271
REMARK  101  A    between atoms: _271  and  _272
REMARK  102  A    between atoms: _271  and  _274
REMARK  103  A    between atoms: _274  and  _275
REMARK  104  A    between atoms: _275  and  _276
REMARK  105  A    between atoms: _281  and  _283
REMARK  106  A    between atoms: _283  and  _284
REMARK  107  A    between atoms: _283  and  _286
REMARK  108  A    between atoms: _286  and  _287
REMARK  109  A    between atoms: _287  and  _288
REMARK  110  A    between atoms: _288  and  _289
REMARK  111  A    between atoms: _298  and  _300
REMARK  112  A    between atoms: _300  and  _301
REMARK  113  A    between atoms: _300  and  _303
REMARK  114  A    between atoms: _303  and  _304
REMARK  115  A    between atoms: _304  and  _305
REMARK  116  A    between atoms: _310  and  _312
REMARK  117  A    between atoms: _312  and  _313
REMARK  118  A    between atoms: _312  and  _315
REMARK  119  A    between atoms: _315  and  _316
REMARK                            x       y       z     vdW  Elec       q    Type
REMARK                         _______ _______ _______ _____ _____    ______ ____
ROOT
ATOM      1  O   HOH     1      18.628   2.271 -19.102  0.00  0.00    +0.000 OA
ENDROOT
TORSDOF 0
REMARK  Name = ../refined-set-2016/3afk/3afk_pocket.pdb
REMARK  119 active torsions:
REMARK  status: ('A' for Active; 'I' for Inactive)
REMARK    1  A    between atoms: _1  and  _3
REMARK    2  A    between atoms: _3  and  _4
REMARK    3  A    between atoms: _6  and  _8
REMARK    4  A    between atoms: _8  and  _9
REMARK    5  A    between atoms: _8  and  _11
REMARK    6  A    between atoms: _11  and  _12
REMARK    7  A    between atoms: _18  and  _19
REMARK    8  A    between atoms: _24  and  _26
REMARK    9  A    between atoms: _26  and  _27
REMARK   10  A    between atoms: _26  and  _29
REMARK   11  A    between atoms: _29  and  _30
REMARK   12  A    between atoms: _35  and  _37
REMARK   13  A    between atoms: _37  and  _38
REMARK   14  A    between atoms: _37  and  _40
REMARK   15  A    between atoms: _40  and  _41
REMARK   16  A    between atoms: _46  and  _48
REMARK   17  A    between atoms: _48  and  _49
REMARK   18  A    between atoms: _48  and  _51
REMARK   19  A    between atoms: _51  and  _52
REMARK   20  A    between atoms: _55  and  _57
REMARK   21  A    between atoms: _57  and  _58
REMARK   22  A    between atoms: _57  and  _60
REMARK   23  A    between atoms: _60  and  _61
REMARK   24  A    between atoms: _64  and  _66
REMARK   25  A    between atoms: _66  and  _67
REMARK   26  A    between atoms: _66  and  _69
REMARK   27  A    between atoms: _69  and  _70
REMARK   28  A    between atoms: _75  and  _77
REMARK   29  A    between atoms: _77  and  _78
REMARK   30  A    between atoms: _77  and  _80
REMARK   31  A    between atoms: _80  and  _81
REMARK   32  A    between atoms: _86  and  _87
REMARK   33  A    between atoms: _89  and  _91
REMARK   34  A    between atoms: _91  and  _92
REMARK   35  A    between atoms: _91  and  _94
REMARK   36  A    between atoms: _94  and  _95
REMARK   37  A    between atoms: _100  and  _102
REMARK   38  A    between atoms: _102  and  _103
REMARK   39  A    between atoms: _102  and  _105
REMARK   40  A    between atoms: _105  and  _106
REMARK   41  A    between atoms: _109  and  _111
REMARK   42  A    between atoms: _111  and  _112
REMARK   43  A    between atoms: _115  and  _117
REMARK   44  A    between atoms: _117  and  _118
REMARK   45  A    between atoms: _117  and  _120
REMARK   46  A    between atoms: _120  and  _121
REMARK   47  A    between atoms: _127  and  _129
REMARK   48  A    between atoms: _129  and  _130
REMARK   49  A    between atoms: _129  and  _132
REMARK   50  A    between atoms: _132  and  _133
REMARK   51  A    between atoms: _133  and  _134
REMARK   52  A    between atoms: _134  and  _135
REMARK   53  A    between atoms: _144  and  _146
REMARK   54  A    between atoms: _146  and  _147
REMARK   55  A    between atoms: _146  and  _149
REMARK   56  A    between atoms: _149  and  _150
REMARK   57  A    between atoms: _150  and  _151
REMARK   58  A    between atoms: _154  and  _156
REMARK   59  A    between atoms: _156  and  _157
REMARK   60  A    between atoms: _156  and  _159
REMARK   61  A    between atoms: _162  and  _164
REMARK   62  A    between atoms: _164  and  _165
REMARK   63  A    between atoms: _164  and  _167
REMARK   64  A    between atoms: _167  and  _168
REMARK   65  A    between atoms: _171  and  _173
REMARK   66  A    between atoms: _173  and  _174
REMARK   67  A    between atoms: _173  and  _176
REMARK   68  A    between atoms: _176  and  _177
REMARK   69  A    between atoms: _183  and  _185
REMARK   70  A    between atoms: _185  and  _186
REMARK   71  A    between atoms: _185  and  _188
REMARK   72  A    between atoms: _188  and  _189
REMARK   73  A    between atoms: _194  and  _196
REMARK   74  A    between atoms: _196  and  _197
REMARK   75  A    between atoms: _196  and  _199
REMARK   76  A    between atoms: _199  and  _200
REMARK   77  A    between atoms: _202  and  _204
REMARK   78  A    between atoms: _204  and  _205
REMARK   79  A    between atoms: _204  and  _207
REMARK   80  A    between atoms: _207  and  _208
REMARK   81  A    between atoms: _208  and  _209
REMARK   82  A    between atoms: _209  and  _210
REMARK   83  A    between atoms: _220  and  _221
REMARK   84  A    between atoms: _226  and  _228
REMARK   85  A    between atoms: _228  and  _229
REMARK   86  A    between atoms: _228  and  _231
REMARK   87  A    between atoms: _231  and  _232
REMARK   88  A    between atoms: _242  and  _244
REMARK   89  A    between atoms: _244  and  _245
REMARK   90  A    between atoms: _244  and  _247
REMARK   91  A    between atoms: _247  and  _248
REMARK   92  A    between atoms: _251  and  _253
REMARK   93  A    between atoms: _253  and  _254
REMARK   94  A    between atoms: _253  and  _256
REMARK   95  A    between atoms: _259  and  _261
REMARK   96  A    between atoms: _261  and  _262
REMARK   97  A    between atoms: _261  and  _264
REMARK   98  A    between atoms: _264  and  _265
REMARK   99  A    between atoms: _265  and  _266
REMARK  100  A    between atoms: _269  and  _271
REMARK  101  A    between atoms: _271  and  _272
REMARK  102  A    between atoms: _271  and  _274
REMARK  103  A    between atoms: _274  and  _275
REMARK  104  A    between atoms: _275  and  _276
REMARK  105  A    between atoms: _281  and  _283
REMARK  106  A    between atoms: _283  and  _284
REMARK  107  A    between atoms: _283  and  _286
REMARK  108  A    between atoms: _286  and  _287
REMARK  109  A    between atoms: _287  and  _288
REMARK  110  A    between atoms: _288  and  _289
REMARK  111  A    between atoms: _298  and  _300
REMARK  112  A    between atoms: _300  and  _301
REMARK  113  A    between atoms: _300  and  _303
REMARK  114  A    between atoms: _303  and  _304
REMARK  115  A    between atoms: _304  and  _305
REMARK  116  A    between atoms: _310  and  _312
REMARK  117  A    between atoms: _312  and  _313
REMARK  118  A    between atoms: _312  and  _315
REMARK  119  A    between atoms: _315  and  _316
REMARK                            x       y       z     vdW  Elec       q    Type
REMARK                         _______ _______ _______ _____ _____    ______ ____
ROOT
ATOM      1  O   HOH     1      18.487  -3.841 -16.645  0.00  0.00    +0.000 OA
ENDROOT
TORSDOF 0
REMARK  Name = ../refined-set-2016/3afk/3afk_pocket.pdb
REMARK  119 active torsions:
REMARK  status: ('A' for Active; 'I' for Inactive)
REMARK    1  A    between atoms: _1  and  _3
REMARK    2  A    between atoms: _3  and  _4
REMARK    3  A    between atoms: _6  and  _8
REMARK    4  A    between atoms: _8  and  _9
REMARK    5  A    between atoms: _8  and  _11
REMARK    6  A    between atoms: _11  and  _12
REMARK    7  A    between atoms: _18  and  _19
REMARK    8  A    between atoms: _24  and  _26
REMARK    9  A    between atoms: _26  and  _27
REMARK   10  A    between atoms: _26  and  _29
REMARK   11  A    between atoms: _29  and  _30
REMARK   12  A    between atoms: _35  and  _37
REMARK   13  A    between atoms: _37  and  _38
REMARK   14  A    between atoms: _37  and  _40
REMARK   15  A    between atoms: _40  and  _41
REMARK   16  A    between atoms: _46  and  _48
REMARK   17  A    between atoms: _48  and  _49
REMARK   18  A    between atoms: _48  and  _51
REMARK   19  A    between atoms: _51  and  _52
REMARK   20  A    between atoms: _55  and  _57
REMARK   21  A    between atoms: _57  and  _58
REMARK   22  A    between atoms: _57  and  _60
REMARK   23  A    between atoms: _60  and  _61
REMARK   24  A    between atoms: _64  and  _66
REMARK   25  A    between atoms: _66  and  _67
REMARK   26  A    between atoms: _66  and  _69
REMARK   27  A    between atoms: _69  and  _70
REMARK   28  A    between atoms: _75  and  _77
REMARK   29  A    between atoms: _77  and  _78
REMARK   30  A    between atoms: _77  and  _80
REMARK   31  A    between atoms: _80  and  _81
REMARK   32  A    between atoms: _86  and  _87
REMARK   33  A    between atoms: _89  and  _91
REMARK   34  A    between atoms: _91  and  _92
REMARK   35  A    between atoms: _91  and  _94
REMARK   36  A    between atoms: _94  and  _95
REMARK   37  A    between atoms: _100  and  _102
REMARK   38  A    between atoms: _102  and  _103
REMARK   39  A    between atoms: _102  and  _105
REMARK   40  A    between atoms: _105  and  _106
REMARK   41  A    between atoms: _109  and  _111
REMARK   42  A    between atoms: _111  and  _112
REMARK   43  A    between atoms: _115  and  _117
REMARK   44  A    between atoms: _117  and  _118
REMARK   45  A    between atoms: _117  and  _120
REMARK   46  A    between atoms: _120  and  _121
REMARK   47  A    between atoms: _127  and  _129
REMARK   48  A    between atoms: _129  and  _130
REMARK   49  A    between atoms: _129  and  _132
REMARK   50  A    between atoms: _132  and  _133
REMARK   51  A    between atoms: _133  and  _134
REMARK   52  A    between atoms: _134  and  _135
REMARK   53  A    between atoms: _144  and  _146
REMARK   54  A    between atoms: _146  and  _147
REMARK   55  A    between atoms: _146  and  _149
REMARK   56  A    between atoms: _149  and  _150
REMARK   57  A    between atoms: _150  and  _151
REMARK   58  A    between atoms: _154  and  _156
REMARK   59  A    between atoms: _156  and  _157
REMARK   60  A    between atoms: _156  and  _159
REMARK   61  A    between atoms: _162  and  _164
REMARK   62  A    between atoms: _164  and  _165
REMARK   63  A    between atoms: _164  and  _167
REMARK   64  A    between atoms: _167  and  _168
REMARK   65  A    between atoms: _171  and  _173
REMARK   66  A    between atoms: _173  and  _174
REMARK   67  A    between atoms: _173  and  _176
REMARK   68  A    between atoms: _176  and  _177
REMARK   69  A    between atoms: _183  and  _185
REMARK   70  A    between atoms: _185  and  _186
REMARK   71  A    between atoms: _185  and  _188
REMARK   72  A    between atoms: _188  and  _189
REMARK   73  A    between atoms: _194  and  _196
REMARK   74  A    between atoms: _196  and  _197
REMARK   75  A    between atoms: _196  and  _199
REMARK   76  A    between atoms: _199  and  _200
REMARK   77  A    between atoms: _202  and  _204
REMARK   78  A    between atoms: _204  and  _205
REMARK   79  A    between atoms: _204  and  _207
REMARK   80  A    between atoms: _207  and  _208
REMARK   81  A    between atoms: _208  and  _209
REMARK   82  A    between atoms: _209  and  _210
REMARK   83  A    between atoms: _220  and  _221
REMARK   84  A    between atoms: _226  and  _228
REMARK   85  A    between atoms: _228  and  _229
REMARK   86  A    between atoms: _228  and  _231
REMARK   87  A    between atoms: _231  and  _232
REMARK   88  A    between atoms: _242  and  _244
REMARK   89  A    between atoms: _244  and  _245
REMARK   90  A    between atoms: _244  and  _247
REMARK   91  A    between atoms: _247  and  _248
REMARK   92  A    between atoms: _251  and  _253
REMARK   93  A    between atoms: _253  and  _254
REMARK   94  A    between atoms: _253  and  _256
REMARK   95  A    between atoms: _259  and  _261
REMARK   96  A    between atoms: _261  and  _262
REMARK   97  A    between atoms: _261  and  _264
REMARK   98  A    between atoms: _264  and  _265
REMARK   99  A    between atoms: _265  and  _266
REMARK  100  A    between atoms: _269  and  _271
REMARK  101  A    between atoms: _271  and  _272
REMARK  102  A    between atoms: _271  and  _274
REMARK  103  A    between atoms: _274  and  _275
REMARK  104  A    between atoms: _275  and  _276
REMARK  105  A    between atoms: _281  and  _283
REMARK  106  A    between atoms: _283  and  _284
REMARK  107  A    between atoms: _283  and  _286
REMARK  108  A    between atoms: _286  and  _287
REMARK  109  A    between atoms: _287  and  _288
REMARK  110  A    between atoms: _288  and  _289
REMARK  111  A    between atoms: _298  and  _300
REMARK  112  A    between atoms: _300  and  _301
REMARK  113  A    between atoms: _300  and  _303
REMARK  114  A    between atoms: _303  and  _304
REMARK  115  A    between atoms: _304  and  _305
REMARK  116  A    between atoms: _310  and  _312
REMARK  117  A    between atoms: _312  and  _313
REMARK  118  A    between atoms: _312  and  _315
REMARK  119  A    between atoms: _315  and  _316
REMARK                            x       y       z     vdW  Elec       q    Type
REMARK                         _______ _______ _______ _____ _____    ______ ____
ROOT
ATOM      1  O   HOH     1      15.763  -4.067 -16.763  0.00  0.00    +0.000 OA
ENDROOT
TORSDOF 0
REMARK  Name = ../refined-set-2016/3afk/3afk_pocket.pdb
REMARK  119 active torsions:
REMARK  status: ('A' for Active; 'I' for Inactive)
REMARK    1  A    between atoms: _1  and  _3
REMARK    2  A    between atoms: _3  and  _4
REMARK    3  A    between atoms: _6  and  _8
REMARK    4  A    between atoms: _8  and  _9
REMARK    5  A    between atoms: _8  and  _11
REMARK    6  A    between atoms: _11  and  _12
REMARK    7  A    between atoms: _18  and  _19
REMARK    8  A    between atoms: _24  and  _26
REMARK    9  A    between atoms: _26  and  _27
REMARK   10  A    between atoms: _26  and  _29
REMARK   11  A    between atoms: _29  and  _30
REMARK   12  A    between atoms: _35  and  _37
REMARK   13  A    between atoms: _37  and  _38
REMARK   14  A    between atoms: _37  and  _40
REMARK   15  A    between atoms: _40  and  _41
REMARK   16  A    between atoms: _46  and  _48
REMARK   17  A    between atoms: _48  and  _49
REMARK   18  A    between atoms: _48  and  _51
REMARK   19  A    between atoms: _51  and  _52
REMARK   20  A    between atoms: _55  and  _57
REMARK   21  A    between atoms: _57  and  _58
REMARK   22  A    between atoms: _57  and  _60
REMARK   23  A    between atoms: _60  and  _61
REMARK   24  A    between atoms: _64  and  _66
REMARK   25  A    between atoms: _66  and  _67
REMARK   26  A    between atoms: _66  and  _69
REMARK   27  A    between atoms: _69  and  _70
REMARK   28  A    between atoms: _75  and  _77
REMARK   29  A    between atoms: _77  and  _78
REMARK   30  A    between atoms: _77  and  _80
REMARK   31  A    between atoms: _80  and  _81
REMARK   32  A    between atoms: _86  and  _87
REMARK   33  A    between atoms: _89  and  _91
REMARK   34  A    between atoms: _91  and  _92
REMARK   35  A    between atoms: _91  and  _94
REMARK   36  A    between atoms: _94  and  _95
REMARK   37  A    between atoms: _100  and  _102
REMARK   38  A    between atoms: _102  and  _103
REMARK   39  A    between atoms: _102  and  _105
REMARK   40  A    between atoms: _105  and  _106
REMARK   41  A    between atoms: _109  and  _111
REMARK   42  A    between atoms: _111  and  _112
REMARK   43  A    between atoms: _115  and  _117
REMARK   44  A    between atoms: _117  and  _118
REMARK   45  A    between atoms: _117  and  _120
REMARK   46  A    between atoms: _120  and  _121
REMARK   47  A    between atoms: _127  and  _129
REMARK   48  A    between atoms: _129  and  _130
REMARK   49  A    between atoms: _129  and  _132
REMARK   50  A    between atoms: _132  and  _133
REMARK   51  A    between atoms: _133  and  _134
REMARK   52  A    between atoms: _134  and  _135
REMARK   53  A    between atoms: _144  and  _146
REMARK   54  A    between atoms: _146  and  _147
REMARK   55  A    between atoms: _146  and  _149
REMARK   56  A    between atoms: _149  and  _150
REMARK   57  A    between atoms: _150  and  _151
REMARK   58  A    between atoms: _154  and  _156
REMARK   59  A    between atoms: _156  and  _157
REMARK   60  A    between atoms: _156  and  _159
REMARK   61  A    between atoms: _162  and  _164
REMARK   62  A    between atoms: _164  and  _165
REMARK   63  A    between atoms: _164  and  _167
REMARK   64  A    between atoms: _167  and  _168
REMARK   65  A    between atoms: _171  and  _173
REMARK   66  A    between atoms: _173  and  _174
REMARK   67  A    between atoms: _173  and  _176
REMARK   68  A    between atoms: _176  and  _177
REMARK   69  A    between atoms: _183  and  _185
REMARK   70  A    between atoms: _185  and  _186
REMARK   71  A    between atoms: _185  and  _188
REMARK   72  A    between atoms: _188  and  _189
REMARK   73  A    between atoms: _194  and  _196
REMARK   74  A    between atoms: _196  and  _197
REMARK   75  A    between atoms: _196  and  _199
REMARK   76  A    between atoms: _199  and  _200
REMARK   77  A    between atoms: _202  and  _204
REMARK   78  A    between atoms: _204  and  _205
REMARK   79  A    between atoms: _204  and  _207
REMARK   80  A    between atoms: _207  and  _208
REMARK   81  A    between atoms: _208  and  _209
REMARK   82  A    between atoms: _209  and  _210
REMARK   83  A    between atoms: _220  and  _221
REMARK   84  A    between atoms: _226  and  _228
REMARK   85  A    between atoms: _228  and  _229
REMARK   86  A    between atoms: _228  and  _231
REMARK   87  A    between atoms: _231  and  _232
REMARK   88  A    between atoms: _242  and  _244
REMARK   89  A    between atoms: _244  and  _245
REMARK   90  A    between atoms: _244  and  _247
REMARK   91  A    between atoms: _247  and  _248
REMARK   92  A    between atoms: _251  and  _253
REMARK   93  A    between atoms: _253  and  _254
REMARK   94  A    between atoms: _253  and  _256
REMARK   95  A    between atoms: _259  and  _261
REMARK   96  A    between atoms: _261  and  _262
REMARK   97  A    between atoms: _261  and  _264
REMARK   98  A    between atoms: _264  and  _265
REMARK   99  A    between atoms: _265  and  _266
REMARK  100  A    between atoms: _269  and  _271
REMARK  101  A    between atoms: _271  and  _272
REMARK  102  A    between atoms: _271  and  _274
REMARK  103  A    between atoms: _274  and  _275
REMARK  104  A    between atoms: _275  and  _276
REMARK  105  A    between atoms: _281  and  _283
REMARK  106  A    between atoms: _283  and  _284
REMARK  107  A    between atoms: _283  and  _286
REMARK  108  A    between atoms: _286  and  _287
REMARK  109  A    between atoms: _287  and  _288
REMARK  110  A    between atoms: _288  and  _289
REMARK  111  A    between atoms: _298  and  _300
REMARK  112  A    between atoms: _300  and  _301
REMARK  113  A    between atoms: _300  and  _303
REMARK  114  A    between atoms: _303  and  _304
REMARK  115  A    between atoms: _304  and  _305
REMARK  116  A    between atoms: _310  and  _312
REMARK  117  A    between atoms: _312  and  _313
REMARK  118  A    between atoms: _312  and  _315
REMARK  119  A    between atoms: _315  and  _316
REMARK                            x       y       z     vdW  Elec       q    Type
REMARK                         _______ _______ _______ _____ _____    ______ ____
ROOT
ATOM      1  O   HOH     1       8.059   1.100 -23.538  0.00  0.00    +0.000 OA
ENDROOT
TORSDOF 0
REMARK  Name = ../refined-set-2016/3afk/3afk_pocket.pdb
REMARK  119 active torsions:
REMARK  status: ('A' for Active; 'I' for Inactive)
REMARK    1  A    between atoms: _1  and  _3
REMARK    2  A    between atoms: _3  and  _4
REMARK    3  A    between atoms: _6  and  _8
REMARK    4  A    between atoms: _8  and  _9
REMARK    5  A    between atoms: _8  and  _11
REMARK    6  A    between atoms: _11  and  _12
REMARK    7  A    between atoms: _18  and  _19
REMARK    8  A    between atoms: _24  and  _26
REMARK    9  A    between atoms: _26  and  _27
REMARK   10  A    between atoms: _26  and  _29
REMARK   11  A    between atoms: _29  and  _30
REMARK   12  A    between atoms: _35  and  _37
REMARK   13  A    between atoms: _37  and  _38
REMARK   14  A    between atoms: _37  and  _40
REMARK   15  A    between atoms: _40  and  _41
REMARK   16  A    between atoms: _46  and  _48
REMARK   17  A    between atoms: _48  and  _49
REMARK   18  A    between atoms: _48  and  _51
REMARK   19  A    between atoms: _51  and  _52
REMARK   20  A    between atoms: _55  and  _57
REMARK   21  A    between atoms: _57  and  _58
REMARK   22  A    between atoms: _57  and  _60
REMARK   23  A    between atoms: _60  and  _61
REMARK   24  A    between atoms: _64  and  _66
REMARK   25  A    between atoms: _66  and  _67
REMARK   26  A    between atoms: _66  and  _69
REMARK   27  A    between atoms: _69  and  _70
REMARK   28  A    between atoms: _75  and  _77
REMARK   29  A    between atoms: _77  and  _78
REMARK   30  A    between atoms: _77  and  _80
REMARK   31  A    between atoms: _80  and  _81
REMARK   32  A    between atoms: _86  and  _87
REMARK   33  A    between atoms: _89  and  _91
REMARK   34  A    between atoms: _91  and  _92
REMARK   35  A    between atoms: _91  and  _94
REMARK   36  A    between atoms: _94  and  _95
REMARK   37  A    between atoms: _100  and  _102
REMARK   38  A    between atoms: _102  and  _103
REMARK   39  A    between atoms: _102  and  _105
REMARK   40  A    between atoms: _105  and  _106
REMARK   41  A    between atoms: _109  and  _111
REMARK   42  A    between atoms: _111  and  _112
REMARK   43  A    between atoms: _115  and  _117
REMARK   44  A    between atoms: _117  and  _118
REMARK   45  A    between atoms: _117  and  _120
REMARK   46  A    between atoms: _120  and  _121
REMARK   47  A    between atoms: _127  and  _129
REMARK   48  A    between atoms: _129  and  _130
REMARK   49  A    between atoms: _129  and  _132
REMARK   50  A    between atoms: _132  and  _133
REMARK   51  A    between atoms: _133  and  _134
REMARK   52  A    between atoms: _134  and  _135
REMARK   53  A    between atoms: _144  and  _146
REMARK   54  A    between atoms: _146  and  _147
REMARK   55  A    between atoms: _146  and  _149
REMARK   56  A    between atoms: _149  and  _150
REMARK   57  A    between atoms: _150  and  _151
REMARK   58  A    between atoms: _154  and  _156
REMARK   59  A    between atoms: _156  and  _157
REMARK   60  A    between atoms: _156  and  _159
REMARK   61  A    between atoms: _162  and  _164
REMARK   62  A    between atoms: _164  and  _165
REMARK   63  A    between atoms: _164  and  _167
REMARK   64  A    between atoms: _167  and  _168
REMARK   65  A    between atoms: _171  and  _173
REMARK   66  A    between atoms: _173  and  _174
REMARK   67  A    between atoms: _173  and  _176
REMARK   68  A    between atoms: _176  and  _177
REMARK   69  A    between atoms: _183  and  _185
REMARK   70  A    between atoms: _185  and  _186
REMARK   71  A    between atoms: _185  and  _188
REMARK   72  A    between atoms: _188  and  _189
REMARK   73  A    between atoms: _194  and  _196
REMARK   74  A    between atoms: _196  and  _197
REMARK   75  A    between atoms: _196  and  _199
REMARK   76  A    between atoms: _199  and  _200
REMARK   77  A    between atoms: _202  and  _204
REMARK   78  A    between atoms: _204  and  _205
REMARK   79  A    between atoms: _204  and  _207
REMARK   80  A    between atoms: _207  and  _208
REMARK   81  A    between atoms: _208  and  _209
REMARK   82  A    between atoms: _209  and  _210
REMARK   83  A    between atoms: _220  and  _221
REMARK   84  A    between atoms: _226  and  _228
REMARK   85  A    between atoms: _228  and  _229
REMARK   86  A    between atoms: _228  and  _231
REMARK   87  A    between atoms: _231  and  _232
REMARK   88  A    between atoms: _242  and  _244
REMARK   89  A    between atoms: _244  and  _245
REMARK   90  A    between atoms: _244  and  _247
REMARK   91  A    between atoms: _247  and  _248
REMARK   92  A    between atoms: _251  and  _253
REMARK   93  A    between atoms: _253  and  _254
REMARK   94  A    between atoms: _253  and  _256
REMARK   95  A    between atoms: _259  and  _261
REMARK   96  A    between atoms: _261  and  _262
REMARK   97  A    between atoms: _261  and  _264
REMARK   98  A    between atoms: _264  and  _265
REMARK   99  A    between atoms: _265  and  _266
REMARK  100  A    between atoms: _269  and  _271
REMARK  101  A    between atoms: _271  and  _272
REMARK  102  A    between atoms: _271  and  _274
REMARK  103  A    between atoms: _274  and  _275
REMARK  104  A    between atoms: _275  and  _276
REMARK  105  A    between atoms: _281  and  _283
REMARK  106  A    between atoms: _283  and  _284
REMARK  107  A    between atoms: _283  and  _286
REMARK  108  A    between atoms: _286  and  _287
REMARK  109  A    between atoms: _287  and  _288
REMARK  110  A    between atoms: _288  and  _289
REMARK  111  A    between atoms: _298  and  _300
REMARK  112  A    between atoms: _300  and  _301
REMARK  113  A    between atoms: _300  and  _303
REMARK  114  A    between atoms: _303  and  _304
REMARK  115  A    between atoms: _304  and  _305
REMARK  116  A    between atoms: _310  and  _312
REMARK  117  A    between atoms: _312  and  _313
REMARK  118  A    between atoms: _312  and  _315
REMARK  119  A    between atoms: _315  and  _316
REMARK                            x       y       z     vdW  Elec       q    Type
REMARK                         _______ _______ _______ _____ _____    ______ ____
ROOT
ATOM      1  O   HOH     1      21.390   4.451 -21.610  0.00  0.00    +0.000 OA
ENDROOT
TORSDOF 0
REMARK  Name = ../refined-set-2016/3afk/3afk_pocket.pdb
REMARK  119 active torsions:
REMARK  status: ('A' for Active; 'I' for Inactive)
REMARK    1  A    between atoms: _1  and  _3
REMARK    2  A    between atoms: _3  and  _4
REMARK    3  A    between atoms: _6  and  _8
REMARK    4  A    between atoms: _8  and  _9
REMARK    5  A    between atoms: _8  and  _11
REMARK    6  A    between atoms: _11  and  _12
REMARK    7  A    between atoms: _18  and  _19
REMARK    8  A    between atoms: _24  and  _26
REMARK    9  A    between atoms: _26  and  _27
REMARK   10  A    between atoms: _26  and  _29
REMARK   11  A    between atoms: _29  and  _30
REMARK   12  A    between atoms: _35  and  _37
REMARK   13  A    between atoms: _37  and  _38
REMARK   14  A    between atoms: _37  and  _40
REMARK   15  A    between atoms: _40  and  _41
REMARK   16  A    between atoms: _46  and  _48
REMARK   17  A    between atoms: _48  and  _49
REMARK   18  A    between atoms: _48  and  _51
REMARK   19  A    between atoms: _51  and  _52
REMARK   20  A    between atoms: _55  and  _57
REMARK   21  A    between atoms: _57  and  _58
REMARK   22  A    between atoms: _57  and  _60
REMARK   23  A    between atoms: _60  and  _61
REMARK   24  A    between atoms: _64  and  _66
REMARK   25  A    between atoms: _66  and  _67
REMARK   26  A    between atoms: _66  and  _69
REMARK   27  A    between atoms: _69  and  _70
REMARK   28  A    between atoms: _75  and  _77
REMARK   29  A    between atoms: _77  and  _78
REMARK   30  A    between atoms: _77  and  _80
REMARK   31  A    between atoms: _80  and  _81
REMARK   32  A    between atoms: _86  and  _87
REMARK   33  A    between atoms: _89  and  _91
REMARK   34  A    between atoms: _91  and  _92
REMARK   35  A    between atoms: _91  and  _94
REMARK   36  A    between atoms: _94  and  _95
REMARK   37  A    between atoms: _100  and  _102
REMARK   38  A    between atoms: _102  and  _103
REMARK   39  A    between atoms: _102  and  _105
REMARK   40  A    between atoms: _105  and  _106
REMARK   41  A    between atoms: _109  and  _111
REMARK   42  A    between atoms: _111  and  _112
REMARK   43  A    between atoms: _115  and  _117
REMARK   44  A    between atoms: _117  and  _118
REMARK   45  A    between atoms: _117  and  _120
REMARK   46  A    between atoms: _120  and  _121
REMARK   47  A    between atoms: _127  and  _129
REMARK   48  A    between atoms: _129  and  _130
REMARK   49  A    between atoms: _129  and  _132
REMARK   50  A    between atoms: _132  and  _133
REMARK   51  A    between atoms: _133  and  _134
REMARK   52  A    between atoms: _134  and  _135
REMARK   53  A    between atoms: _144  and  _146
REMARK   54  A    between atoms: _146  and  _147
REMARK   55  A    between atoms: _146  and  _149
REMARK   56  A    between atoms: _149  and  _150
REMARK   57  A    between atoms: _150  and  _151
REMARK   58  A    between atoms: _154  and  _156
REMARK   59  A    between atoms: _156  and  _157
REMARK   60  A    between atoms: _156  and  _159
REMARK   61  A    between atoms: _162  and  _164
REMARK   62  A    between atoms: _164  and  _165
REMARK   63  A    between atoms: _164  and  _167
REMARK   64  A    between atoms: _167  and  _168
REMARK   65  A    between atoms: _171  and  _173
REMARK   66  A    between atoms: _173  and  _174
REMARK   67  A    between atoms: _173  and  _176
REMARK   68  A    between atoms: _176  and  _177
REMARK   69  A    between atoms: _183  and  _185
REMARK   70  A    between atoms: _185  and  _186
REMARK   71  A    between atoms: _185  and  _188
REMARK   72  A    between atoms: _188  and  _189
REMARK   73  A    between atoms: _194  and  _196
REMARK   74  A    between atoms: _196  and  _197
REMARK   75  A    between atoms: _196  and  _199
REMARK   76  A    between atoms: _199  and  _200
REMARK   77  A    between atoms: _202  and  _204
REMARK   78  A    between atoms: _204  and  _205
REMARK   79  A    between atoms: _204  and  _207
REMARK   80  A    between atoms: _207  and  _208
REMARK   81  A    between atoms: _208  and  _209
REMARK   82  A    between atoms: _209  and  _210
REMARK   83  A    between atoms: _220  and  _221
REMARK   84  A    between atoms: _226  and  _228
REMARK   85  A    between atoms: _228  and  _229
REMARK   86  A    between atoms: _228  and  _231
REMARK   87  A    between atoms: _231  and  _232
REMARK   88  A    between atoms: _242  and  _244
REMARK   89  A    between atoms: _244  and  _245
REMARK   90  A    between atoms: _244  and  _247
REMARK   91  A    between atoms: _247  and  _248
REMARK   92  A    between atoms: _251  and  _253
REMARK   93  A    between atoms: _253  and  _254
REMARK   94  A    between atoms: _253  and  _256
REMARK   95  A    between atoms: _259  and  _261
REMARK   96  A    between atoms: _261  and  _262
REMARK   97  A    between atoms: _261  and  _264
REMARK   98  A    between atoms: _264  and  _265
REMARK   99  A    between atoms: _265  and  _266
REMARK  100  A    between atoms: _269  and  _271
REMARK  101  A    between atoms: _271  and  _272
REMARK  102  A    between atoms: _271  and  _274
REMARK  103  A    between atoms: _274  and  _275
REMARK  104  A    between atoms: _275  and  _276
REMARK  105  A    between atoms: _281  and  _283
REMARK  106  A    between atoms: _283  and  _284
REMARK  107  A    between atoms: _283  and  _286
REMARK  108  A    between atoms: _286  and  _287
REMARK  109  A    between atoms: _287  and  _288
REMARK  110  A    between atoms: _288  and  _289
REMARK  111  A    between atoms: _298  and  _300
REMARK  112  A    between atoms: _300  and  _301
REMARK  113  A    between atoms: _300  and  _303
REMARK  114  A    between atoms: _303  and  _304
REMARK  115  A    between atoms: _304  and  _305
REMARK  116  A    between atoms: _310  and  _312
REMARK  117  A    between atoms: _312  and  _313
REMARK  118  A    between atoms: _312  and  _315
REMARK  119  A    between atoms: _315  and  _316
REMARK                            x       y       z     vdW  Elec       q    Type
REMARK                         _______ _______ _______ _____ _____    ______ ____
ROOT
ATOM      1  O   HOH     1      10.710  -2.172 -21.684  0.00  0.00    +0.000 OA
ENDROOT
TORSDOF 0
REMARK  Name = ../refined-set-2016/3afk/3afk_pocket.pdb
REMARK  119 active torsions:
REMARK  status: ('A' for Active; 'I' for Inactive)
REMARK    1  A    between atoms: _1  and  _3
REMARK    2  A    between atoms: _3  and  _4
REMARK    3  A    between atoms: _6  and  _8
REMARK    4  A    between atoms: _8  and  _9
REMARK    5  A    between atoms: _8  and  _11
REMARK    6  A    between atoms: _11  and  _12
REMARK    7  A    between atoms: _18  and  _19
REMARK    8  A    between atoms: _24  and  _26
REMARK    9  A    between atoms: _26  and  _27
REMARK   10  A    between atoms: _26  and  _29
REMARK   11  A    between atoms: _29  and  _30
REMARK   12  A    between atoms: _35  and  _37
REMARK   13  A    between atoms: _37  and  _38
REMARK   14  A    between atoms: _37  and  _40
REMARK   15  A    between atoms: _40  and  _41
REMARK   16  A    between atoms: _46  and  _48
REMARK   17  A    between atoms: _48  and  _49
REMARK   18  A    between atoms: _48  and  _51
REMARK   19  A    between atoms: _51  and  _52
REMARK   20  A    between atoms: _55  and  _57
REMARK   21  A    between atoms: _57  and  _58
REMARK   22  A    between atoms: _57  and  _60
REMARK   23  A    between atoms: _60  and  _61
REMARK   24  A    between atoms: _64  and  _66
REMARK   25  A    between atoms: _66  and  _67
REMARK   26  A    between atoms: _66  and  _69
REMARK   27  A    between atoms: _69  and  _70
REMARK   28  A    between atoms: _75  and  _77
REMARK   29  A    between atoms: _77  and  _78
REMARK   30  A    between atoms: _77  and  _80
REMARK   31  A    between atoms: _80  and  _81
REMARK   32  A    between atoms: _86  and  _87
REMARK   33  A    between atoms: _89  and  _91
REMARK   34  A    between atoms: _91  and  _92
REMARK   35  A    between atoms: _91  and  _94
REMARK   36  A    between atoms: _94  and  _95
REMARK   37  A    between atoms: _100  and  _102
REMARK   38  A    between atoms: _102  and  _103
REMARK   39  A    between atoms: _102  and  _105
REMARK   40  A    between atoms: _105  and  _106
REMARK   41  A    between atoms: _109  and  _111
REMARK   42  A    between atoms: _111  and  _112
REMARK   43  A    between atoms: _115  and  _117
REMARK   44  A    between atoms: _117  and  _118
REMARK   45  A    between atoms: _117  and  _120
REMARK   46  A    between atoms: _120  and  _121
REMARK   47  A    between atoms: _127  and  _129
REMARK   48  A    between atoms: _129  and  _130
REMARK   49  A    between atoms: _129  and  _132
REMARK   50  A    between atoms: _132  and  _133
REMARK   51  A    between atoms: _133  and  _134
REMARK   52  A    between atoms: _134  and  _135
REMARK   53  A    between atoms: _144  and  _146
REMARK   54  A    between atoms: _146  and  _147
REMARK   55  A    between atoms: _146  and  _149
REMARK   56  A    between atoms: _149  and  _150
REMARK   57  A    between atoms: _150  and  _151
REMARK   58  A    between atoms: _154  and  _156
REMARK   59  A    between atoms: _156  and  _157
REMARK   60  A    between atoms: _156  and  _159
REMARK   61  A    between atoms: _162  and  _164
REMARK   62  A    between atoms: _164  and  _165
REMARK   63  A    between atoms: _164  and  _167
REMARK   64  A    between atoms: _167  and  _168
REMARK   65  A    between atoms: _171  and  _173
REMARK   66  A    between atoms: _173  and  _174
REMARK   67  A    between atoms: _173  and  _176
REMARK   68  A    between atoms: _176  and  _177
REMARK   69  A    between atoms: _183  and  _185
REMARK   70  A    between atoms: _185  and  _186
REMARK   71  A    between atoms: _185  and  _188
REMARK   72  A    between atoms: _188  and  _189
REMARK   73  A    between atoms: _194  and  _196
REMARK   74  A    between atoms: _196  and  _197
REMARK   75  A    between atoms: _196  and  _199
REMARK   76  A    between atoms: _199  and  _200
REMARK   77  A    between atoms: _202  and  _204
REMARK   78  A    between atoms: _204  and  _205
REMARK   79  A    between atoms: _204  and  _207
REMARK   80  A    between atoms: _207  and  _208
REMARK   81  A    between atoms: _208  and  _209
REMARK   82  A    between atoms: _209  and  _210
REMARK   83  A    between atoms: _220  and  _221
REMARK   84  A    between atoms: _226  and  _228
REMARK   85  A    between atoms: _228  and  _229
REMARK   86  A    between atoms: _228  and  _231
REMARK   87  A    between atoms: _231  and  _232
REMARK   88  A    between atoms: _242  and  _244
REMARK   89  A    between atoms: _244  and  _245
REMARK   90  A    between atoms: _244  and  _247
REMARK   91  A    between atoms: _247  and  _248
REMARK   92  A    between atoms: _251  and  _253
REMARK   93  A    between atoms: _253  and  _254
REMARK   94  A    between atoms: _253  and  _256
REMARK   95  A    between atoms: _259  and  _261
REMARK   96  A    between atoms: _261  and  _262
REMARK   97  A    between atoms: _261  and  _264
REMARK   98  A    between atoms: _264  and  _265
REMARK   99  A    between atoms: _265  and  _266
REMARK  100  A    between atoms: _269  and  _271
REMARK  101  A    between atoms: _271  and  _272
REMARK  102  A    between atoms: _271  and  _274
REMARK  103  A    between atoms: _274  and  _275
REMARK  104  A    between atoms: _275  and  _276
REMARK  105  A    between atoms: _281  and  _283
REMARK  106  A    between atoms: _283  and  _284
REMARK  107  A    between atoms: _283  and  _286
REMARK  108  A    between atoms: _286  and  _287
REMARK  109  A    between atoms: _287  and  _288
REMARK  110  A    between atoms: _288  and  _289
REMARK  111  A    between atoms: _298  and  _300
REMARK  112  A    between atoms: _300  and  _301
REMARK  113  A    between atoms: _300  and  _303
REMARK  114  A    between atoms: _303  and  _304
REMARK  115  A    between atoms: _304  and  _305
REMARK  116  A    between atoms: _310  and  _312
REMARK  117  A    between atoms: _312  and  _313
REMARK  118  A    between atoms: _312  and  _315
REMARK  119  A    between atoms: _315  and  _316
REMARK                            x       y       z     vdW  Elec       q    Type
REMARK                         _______ _______ _______ _____ _____    ______ ____
ROOT
ATOM      1  O   HOH     1      11.048  12.826 -17.815  0.00  0.00    +0.000 OA
ENDROOT
TORSDOF 0
REMARK  Name = ../refined-set-2016/3afk/3afk_pocket.pdb
REMARK  119 active torsions:
REMARK  status: ('A' for Active; 'I' for Inactive)
REMARK    1  A    between atoms: _1  and  _3
REMARK    2  A    between atoms: _3  and  _4
REMARK    3  A    between atoms: _6  and  _8
REMARK    4  A    between atoms: _8  and  _9
REMARK    5  A    between atoms: _8  and  _11
REMARK    6  A    between atoms: _11  and  _12
REMARK    7  A    between atoms: _18  and  _19
REMARK    8  A    between atoms: _24  and  _26
REMARK    9  A    between atoms: _26  and  _27
REMARK   10  A    between atoms: _26  and  _29
REMARK   11  A    between atoms: _29  and  _30
REMARK   12  A    between atoms: _35  and  _37
REMARK   13  A    between atoms: _37  and  _38
REMARK   14  A    between atoms: _37  and  _40
REMARK   15  A    between atoms: _40  and  _41
REMARK   16  A    between atoms: _46  and  _48
REMARK   17  A    between atoms: _48  and  _49
REMARK   18  A    between atoms: _48  and  _51
REMARK   19  A    between atoms: _51  and  _52
REMARK   20  A    between atoms: _55  and  _57
REMARK   21  A    between atoms: _57  and  _58
REMARK   22  A    between atoms: _57  and  _60
REMARK   23  A    between atoms: _60  and  _61
REMARK   24  A    between atoms: _64  and  _66
REMARK   25  A    between atoms: _66  and  _67
REMARK   26  A    between atoms: _66  and  _69
REMARK   27  A    between atoms: _69  and  _70
REMARK   28  A    between atoms: _75  and  _77
REMARK   29  A    between atoms: _77  and  _78
REMARK   30  A    between atoms: _77  and  _80
REMARK   31  A    between atoms: _80  and  _81
REMARK   32  A    between atoms: _86  and  _87
REMARK   33  A    between atoms: _89  and  _91
REMARK   34  A    between atoms: _91  and  _92
REMARK   35  A    between atoms: _91  and  _94
REMARK   36  A    between atoms: _94  and  _95
REMARK   37  A    between atoms: _100  and  _102
REMARK   38  A    between atoms: _102  and  _103
REMARK   39  A    between atoms: _102  and  _105
REMARK   40  A    between atoms: _105  and  _106
REMARK   41  A    between atoms: _109  and  _111
REMARK   42  A    between atoms: _111  and  _112
REMARK   43  A    between atoms: _115  and  _117
REMARK   44  A    between atoms: _117  and  _118
REMARK   45  A    between atoms: _117  and  _120
REMARK   46  A    between atoms: _120  and  _121
REMARK   47  A    between atoms: _127  and  _129
REMARK   48  A    between atoms: _129  and  _130
REMARK   49  A    between atoms: _129  and  _132
REMARK   50  A    between atoms: _132  and  _133
REMARK   51  A    between atoms: _133  and  _134
REMARK   52  A    between atoms: _134  and  _135
REMARK   53  A    between atoms: _144  and  _146
REMARK   54  A    between atoms: _146  and  _147
REMARK   55  A    between atoms: _146  and  _149
REMARK   56  A    between atoms: _149  and  _150
REMARK   57  A    between atoms: _150  and  _151
REMARK   58  A    between atoms: _154  and  _156
REMARK   59  A    between atoms: _156  and  _157
REMARK   60  A    between atoms: _156  and  _159
REMARK   61  A    between atoms: _162  and  _164
REMARK   62  A    between atoms: _164  and  _165
REMARK   63  A    between atoms: _164  and  _167
REMARK   64  A    between atoms: _167  and  _168
REMARK   65  A    between atoms: _171  and  _173
REMARK   66  A    between atoms: _173  and  _174
REMARK   67  A    between atoms: _173  and  _176
REMARK   68  A    between atoms: _176  and  _177
REMARK   69  A    between atoms: _183  and  _185
REMARK   70  A    between atoms: _185  and  _186
REMARK   71  A    between atoms: _185  and  _188
REMARK   72  A    between atoms: _188  and  _189
REMARK   73  A    between atoms: _194  and  _196
REMARK   74  A    between atoms: _196  and  _197
REMARK   75  A    between atoms: _196  and  _199
REMARK   76  A    between atoms: _199  and  _200
REMARK   77  A    between atoms: _202  and  _204
REMARK   78  A    between atoms: _204  and  _205
REMARK   79  A    between atoms: _204  and  _207
REMARK   80  A    between atoms: _207  and  _208
REMARK   81  A    between atoms: _208  and  _209
REMARK   82  A    between atoms: _209  and  _210
REMARK   83  A    between atoms: _220  and  _221
REMARK   84  A    between atoms: _226  and  _228
REMARK   85  A    between atoms: _228  and  _229
REMARK   86  A    between atoms: _228  and  _231
REMARK   87  A    between atoms: _231  and  _232
REMARK   88  A    between atoms: _242  and  _244
REMARK   89  A    between atoms: _244  and  _245
REMARK   90  A    between atoms: _244  and  _247
REMARK   91  A    between atoms: _247  and  _248
REMARK   92  A    between atoms: _251  and  _253
REMARK   93  A    between atoms: _253  and  _254
REMARK   94  A    between atoms: _253  and  _256
REMARK   95  A    between atoms: _259  and  _261
REMARK   96  A    between atoms: _261  and  _262
REMARK   97  A    between atoms: _261  and  _264
REMARK   98  A    between atoms: _264  and  _265
REMARK   99  A    between atoms: _265  and  _266
REMARK  100  A    between atoms: _269  and  _271
REMARK  101  A    between atoms: _271  and  _272
REMARK  102  A    between atoms: _271  and  _274
REMARK  103  A    between atoms: _274  and  _275
REMARK  104  A    between atoms: _275  and  _276
REMARK  105  A    between atoms: _281  and  _283
REMARK  106  A    between atoms: _283  and  _284
REMARK  107  A    between atoms: _283  and  _286
REMARK  108  A    between atoms: _286  and  _287
REMARK  109  A    between atoms: _287  and  _288
REMARK  110  A    between atoms: _288  and  _289
REMARK  111  A    between atoms: _298  and  _300
REMARK  112  A    between atoms: _300  and  _301
REMARK  113  A    between atoms: _300  and  _303
REMARK  114  A    between atoms: _303  and  _304
REMARK  115  A    between atoms: _304  and  _305
REMARK  116  A    between atoms: _310  and  _312
REMARK  117  A    between atoms: _312  and  _313
REMARK  118  A    between atoms: _312  and  _315
REMARK  119  A    between atoms: _315  and  _316
REMARK                            x       y       z     vdW  Elec       q    Type
REMARK                         _______ _______ _______ _____ _____    ______ ____
ROOT
ATOM      1  O   HOH     1      10.797  10.067 -21.159  0.00  0.00    +0.000 OA
ENDROOT
TORSDOF 0
REMARK  Name = ../refined-set-2016/3afk/3afk_pocket.pdb
REMARK  119 active torsions:
REMARK  status: ('A' for Active; 'I' for Inactive)
REMARK    1  A    between atoms: _1  and  _3
REMARK    2  A    between atoms: _3  and  _4
REMARK    3  A    between atoms: _6  and  _8
REMARK    4  A    between atoms: _8  and  _9
REMARK    5  A    between atoms: _8  and  _11
REMARK    6  A    between atoms: _11  and  _12
REMARK    7  A    between atoms: _18  and  _19
REMARK    8  A    between atoms: _24  and  _26
REMARK    9  A    between atoms: _26  and  _27
REMARK   10  A    between atoms: _26  and  _29
REMARK   11  A    between atoms: _29  and  _30
REMARK   12  A    between atoms: _35  and  _37
REMARK   13  A    between atoms: _37  and  _38
REMARK   14  A    between atoms: _37  and  _40
REMARK   15  A    between atoms: _40  and  _41
REMARK   16  A    between atoms: _46  and  _48
REMARK   17  A    between atoms: _48  and  _49
REMARK   18  A    between atoms: _48  and  _51
REMARK   19  A    between atoms: _51  and  _52
REMARK   20  A    between atoms: _55  and  _57
REMARK   21  A    between atoms: _57  and  _58
REMARK   22  A    between atoms: _57  and  _60
REMARK   23  A    between atoms: _60  and  _61
REMARK   24  A    between atoms: _64  and  _66
REMARK   25  A    between atoms: _66  and  _67
REMARK   26  A    between atoms: _66  and  _69
REMARK   27  A    between atoms: _69  and  _70
REMARK   28  A    between atoms: _75  and  _77
REMARK   29  A    between atoms: _77  and  _78
REMARK   30  A    between atoms: _77  and  _80
REMARK   31  A    between atoms: _80  and  _81
REMARK   32  A    between atoms: _86  and  _87
REMARK   33  A    between atoms: _89  and  _91
REMARK   34  A    between atoms: _91  and  _92
REMARK   35  A    between atoms: _91  and  _94
REMARK   36  A    between atoms: _94  and  _95
REMARK   37  A    between atoms: _100  and  _102
REMARK   38  A    between atoms: _102  and  _103
REMARK   39  A    between atoms: _102  and  _105
REMARK   40  A    between atoms: _105  and  _106
REMARK   41  A    between atoms: _109  and  _111
REMARK   42  A    between atoms: _111  and  _112
REMARK   43  A    between atoms: _115  and  _117
REMARK   44  A    between atoms: _117  and  _118
REMARK   45  A    between atoms: _117  and  _120
REMARK   46  A    between atoms: _120  and  _121
REMARK   47  A    between atoms: _127  and  _129
REMARK   48  A    between atoms: _129  and  _130
REMARK   49  A    between atoms: _129  and  _132
REMARK   50  A    between atoms: _132  and  _133
REMARK   51  A    between atoms: _133  and  _134
REMARK   52  A    between atoms: _134  and  _135
REMARK   53  A    between atoms: _144  and  _146
REMARK   54  A    between atoms: _146  and  _147
REMARK   55  A    between atoms: _146  and  _149
REMARK   56  A    between atoms: _149  and  _150
REMARK   57  A    between atoms: _150  and  _151
REMARK   58  A    between atoms: _154  and  _156
REMARK   59  A    between atoms: _156  and  _157
REMARK   60  A    between atoms: _156  and  _159
REMARK   61  A    between atoms: _162  and  _164
REMARK   62  A    between atoms: _164  and  _165
REMARK   63  A    between atoms: _164  and  _167
REMARK   64  A    between atoms: _167  and  _168
REMARK   65  A    between atoms: _171  and  _173
REMARK   66  A    between atoms: _173  and  _174
REMARK   67  A    between atoms: _173  and  _176
REMARK   68  A    between atoms: _176  and  _177
REMARK   69  A    between atoms: _183  and  _185
REMARK   70  A    between atoms: _185  and  _186
REMARK   71  A    between atoms: _185  and  _188
REMARK   72  A    between atoms: _188  and  _189
REMARK   73  A    between atoms: _194  and  _196
REMARK   74  A    between atoms: _196  and  _197
REMARK   75  A    between atoms: _196  and  _199
REMARK   76  A    between atoms: _199  and  _200
REMARK   77  A    between atoms: _202  and  _204
REMARK   78  A    between atoms: _204  and  _205
REMARK   79  A    between atoms: _204  and  _207
REMARK   80  A    between atoms: _207  and  _208
REMARK   81  A    between atoms: _208  and  _209
REMARK   82  A    between atoms: _209  and  _210
REMARK   83  A    between atoms: _220  and  _221
REMARK   84  A    between atoms: _226  and  _228
REMARK   85  A    between atoms: _228  and  _229
REMARK   86  A    between atoms: _228  and  _231
REMARK   87  A    between atoms: _231  and  _232
REMARK   88  A    between atoms: _242  and  _244
REMARK   89  A    between atoms: _244  and  _245
REMARK   90  A    between atoms: _244  and  _247
REMARK   91  A    between atoms: _247  and  _248
REMARK   92  A    between atoms: _251  and  _253
REMARK   93  A    between atoms: _253  and  _254
REMARK   94  A    between atoms: _253  and  _256
REMARK   95  A    between atoms: _259  and  _261
REMARK   96  A    between atoms: _261  and  _262
REMARK   97  A    between atoms: _261  and  _264
REMARK   98  A    between atoms: _264  and  _265
REMARK   99  A    between atoms: _265  and  _266
REMARK  100  A    between atoms: _269  and  _271
REMARK  101  A    between atoms: _271  and  _272
REMARK  102  A    between atoms: _271  and  _274
REMARK  103  A    between atoms: _274  and  _275
REMARK  104  A    between atoms: _275  and  _276
REMARK  105  A    between atoms: _281  and  _283
REMARK  106  A    between atoms: _283  and  _284
REMARK  107  A    between atoms: _283  and  _286
REMARK  108  A    between atoms: _286  and  _287
REMARK  109  A    between atoms: _287  and  _288
REMARK  110  A    between atoms: _288  and  _289
REMARK  111  A    between atoms: _298  and  _300
REMARK  112  A    between atoms: _300  and  _301
REMARK  113  A    between atoms: _300  and  _303
REMARK  114  A    between atoms: _303  and  _304
REMARK  115  A    between atoms: _304  and  _305
REMARK  116  A    between atoms: _310  and  _312
REMARK  117  A    between atoms: _312  and  _313
REMARK  118  A    between atoms: _312  and  _315
REMARK  119  A    between atoms: _315  and  _316
REMARK                            x       y       z     vdW  Elec       q    Type
REMARK                         _______ _______ _______ _____ _____    ______ ____
ROOT
ATOM      1  O   HOH     1       8.400  -1.539 -19.264  0.00  0.00    +0.000 OA
ENDROOT
TORSDOF 0
REMARK  Name = ../refined-set-2016/3afk/3afk_pocket.pdb
REMARK  119 active torsions:
REMARK  status: ('A' for Active; 'I' for Inactive)
REMARK    1  A    between atoms: _1  and  _3
REMARK    2  A    between atoms: _3  and  _4
REMARK    3  A    between atoms: _6  and  _8
REMARK    4  A    between atoms: _8  and  _9
REMARK    5  A    between atoms: _8  and  _11
REMARK    6  A    between atoms: _11  and  _12
REMARK    7  A    between atoms: _18  and  _19
REMARK    8  A    between atoms: _24  and  _26
REMARK    9  A    between atoms: _26  and  _27
REMARK   10  A    between atoms: _26  and  _29
REMARK   11  A    between atoms: _29  and  _30
REMARK   12  A    between atoms: _35  and  _37
REMARK   13  A    between atoms: _37  and  _38
REMARK   14  A    between atoms: _37  and  _40
REMARK   15  A    between atoms: _40  and  _41
REMARK   16  A    between atoms: _46  and  _48
REMARK   17  A    between atoms: _48  and  _49
REMARK   18  A    between atoms: _48  and  _51
REMARK   19  A    between atoms: _51  and  _52
REMARK   20  A    between atoms: _55  and  _57
REMARK   21  A    between atoms: _57  and  _58
REMARK   22  A    between atoms: _57  and  _60
REMARK   23  A    between atoms: _60  and  _61
REMARK   24  A    between atoms: _64  and  _66
REMARK   25  A    between atoms: _66  and  _67
REMARK   26  A    between atoms: _66  and  _69
REMARK   27  A    between atoms: _69  and  _70
REMARK   28  A    between atoms: _75  and  _77
REMARK   29  A    between atoms: _77  and  _78
REMARK   30  A    between atoms: _77  and  _80
REMARK   31  A    between atoms: _80  and  _81
REMARK   32  A    between atoms: _86  and  _87
REMARK   33  A    between atoms: _89  and  _91
REMARK   34  A    between atoms: _91  and  _92
REMARK   35  A    between atoms: _91  and  _94
REMARK   36  A    between atoms: _94  and  _95
REMARK   37  A    between atoms: _100  and  _102
REMARK   38  A    between atoms: _102  and  _103
REMARK   39  A    between atoms: _102  and  _105
REMARK   40  A    between atoms: _105  and  _106
REMARK   41  A    between atoms: _109  and  _111
REMARK   42  A    between atoms: _111  and  _112
REMARK   43  A    between atoms: _115  and  _117
REMARK   44  A    between atoms: _117  and  _118
REMARK   45  A    between atoms: _117  and  _120
REMARK   46  A    between atoms: _120  and  _121
REMARK   47  A    between atoms: _127  and  _129
REMARK   48  A    between atoms: _129  and  _130
REMARK   49  A    between atoms: _129  and  _132
REMARK   50  A    between atoms: _132  and  _133
REMARK   51  A    between atoms: _133  and  _134
REMARK   52  A    between atoms: _134  and  _135
REMARK   53  A    between atoms: _144  and  _146
REMARK   54  A    between atoms: _146  and  _147
REMARK   55  A    between atoms: _146  and  _149
REMARK   56  A    between atoms: _149  and  _150
REMARK   57  A    between atoms: _150  and  _151
REMARK   58  A    between atoms: _154  and  _156
REMARK   59  A    between atoms: _156  and  _157
REMARK   60  A    between atoms: _156  and  _159
REMARK   61  A    between atoms: _162  and  _164
REMARK   62  A    between atoms: _164  and  _165
REMARK   63  A    between atoms: _164  and  _167
REMARK   64  A    between atoms: _167  and  _168
REMARK   65  A    between atoms: _171  and  _173
REMARK   66  A    between atoms: _173  and  _174
REMARK   67  A    between atoms: _173  and  _176
REMARK   68  A    between atoms: _176  and  _177
REMARK   69  A    between atoms: _183  and  _185
REMARK   70  A    between atoms: _185  and  _186
REMARK   71  A    between atoms: _185  and  _188
REMARK   72  A    between atoms: _188  and  _189
REMARK   73  A    between atoms: _194  and  _196
REMARK   74  A    between atoms: _196  and  _197
REMARK   75  A    between atoms: _196  and  _199
REMARK   76  A    between atoms: _199  and  _200
REMARK   77  A    between atoms: _202  and  _204
REMARK   78  A    between atoms: _204  and  _205
REMARK   79  A    between atoms: _204  and  _207
REMARK   80  A    between atoms: _207  and  _208
REMARK   81  A    between atoms: _208  and  _209
REMARK   82  A    between atoms: _209  and  _210
REMARK   83  A    between atoms: _220  and  _221
REMARK   84  A    between atoms: _226  and  _228
REMARK   85  A    between atoms: _228  and  _229
REMARK   86  A    between atoms: _228  and  _231
REMARK   87  A    between atoms: _231  and  _232
REMARK   88  A    between atoms: _242  and  _244
REMARK   89  A    between atoms: _244  and  _245
REMARK   90  A    between atoms: _244  and  _247
REMARK   91  A    between atoms: _247  and  _248
REMARK   92  A    between atoms: _251  and  _253
REMARK   93  A    between atoms: _253  and  _254
REMARK   94  A    between atoms: _253  and  _256
REMARK   95  A    between atoms: _259  and  _261
REMARK   96  A    between atoms: _261  and  _262
REMARK   97  A    between atoms: _261  and  _264
REMARK   98  A    between atoms: _264  and  _265
REMARK   99  A    between atoms: _265  and  _266
REMARK  100  A    between atoms: _269  and  _271
REMARK  101  A    between atoms: _271  and  _272
REMARK  102  A    between atoms: _271  and  _274
REMARK  103  A    between atoms: _274  and  _275
REMARK  104  A    between atoms: _275  and  _276
REMARK  105  A    between atoms: _281  and  _283
REMARK  106  A    between atoms: _283  and  _284
REMARK  107  A    between atoms: _283  and  _286
REMARK  108  A    between atoms: _286  and  _287
REMARK  109  A    between atoms: _287  and  _288
REMARK  110  A    between atoms: _288  and  _289
REMARK  111  A    between atoms: _298  and  _300
REMARK  112  A    between atoms: _300  and  _301
REMARK  113  A    between atoms: _300  and  _303
REMARK  114  A    between atoms: _303  and  _304
REMARK  115  A    between atoms: _304  and  _305
REMARK  116  A    between atoms: _310  and  _312
REMARK  117  A    between atoms: _312  and  _313
REMARK  118  A    between atoms: _312  and  _315
REMARK  119  A    between atoms: _315  and  _316
REMARK                            x       y       z     vdW  Elec       q    Type
REMARK                         _______ _______ _______ _____ _____    ______ ____
ROOT
ATOM      1  O   HOH     1       8.694   2.805 -21.771  0.00  0.00    +0.000 OA
ENDROOT
TORSDOF 0
REMARK  Name = ../refined-set-2016/3afk/3afk_pocket.pdb
REMARK  119 active torsions:
REMARK  status: ('A' for Active; 'I' for Inactive)
REMARK    1  A    between atoms: _1  and  _3
REMARK    2  A    between atoms: _3  and  _4
REMARK    3  A    between atoms: _6  and  _8
REMARK    4  A    between atoms: _8  and  _9
REMARK    5  A    between atoms: _8  and  _11
REMARK    6  A    between atoms: _11  and  _12
REMARK    7  A    between atoms: _18  and  _19
REMARK    8  A    between atoms: _24  and  _26
REMARK    9  A    between atoms: _26  and  _27
REMARK   10  A    between atoms: _26  and  _29
REMARK   11  A    between atoms: _29  and  _30
REMARK   12  A    between atoms: _35  and  _37
REMARK   13  A    between atoms: _37  and  _38
REMARK   14  A    between atoms: _37  and  _40
REMARK   15  A    between atoms: _40  and  _41
REMARK   16  A    between atoms: _46  and  _48
REMARK   17  A    between atoms: _48  and  _49
REMARK   18  A    between atoms: _48  and  _51
REMARK   19  A    between atoms: _51  and  _52
REMARK   20  A    between atoms: _55  and  _57
REMARK   21  A    between atoms: _57  and  _58
REMARK   22  A    between atoms: _57  and  _60
REMARK   23  A    between atoms: _60  and  _61
REMARK   24  A    between atoms: _64  and  _66
REMARK   25  A    between atoms: _66  and  _67
REMARK   26  A    between atoms: _66  and  _69
REMARK   27  A    between atoms: _69  and  _70
REMARK   28  A    between atoms: _75  and  _77
REMARK   29  A    between atoms: _77  and  _78
REMARK   30  A    between atoms: _77  and  _80
REMARK   31  A    between atoms: _80  and  _81
REMARK   32  A    between atoms: _86  and  _87
REMARK   33  A    between atoms: _89  and  _91
REMARK   34  A    between atoms: _91  and  _92
REMARK   35  A    between atoms: _91  and  _94
REMARK   36  A    between atoms: _94  and  _95
REMARK   37  A    between atoms: _100  and  _102
REMARK   38  A    between atoms: _102  and  _103
REMARK   39  A    between atoms: _102  and  _105
REMARK   40  A    between atoms: _105  and  _106
REMARK   41  A    between atoms: _109  and  _111
REMARK   42  A    between atoms: _111  and  _112
REMARK   43  A    between atoms: _115  and  _117
REMARK   44  A    between atoms: _117  and  _118
REMARK   45  A    between atoms: _117  and  _120
REMARK   46  A    between atoms: _120  and  _121
REMARK   47  A    between atoms: _127  and  _129
REMARK   48  A    between atoms: _129  and  _130
REMARK   49  A    between atoms: _129  and  _132
REMARK   50  A    between atoms: _132  and  _133
REMARK   51  A    between atoms: _133  and  _134
REMARK   52  A    between atoms: _134  and  _135
REMARK   53  A    between atoms: _144  and  _146
REMARK   54  A    between atoms: _146  and  _147
REMARK   55  A    between atoms: _146  and  _149
REMARK   56  A    between atoms: _149  and  _150
REMARK   57  A    between atoms: _150  and  _151
REMARK   58  A    between atoms: _154  and  _156
REMARK   59  A    between atoms: _156  and  _157
REMARK   60  A    between atoms: _156  and  _159
REMARK   61  A    between atoms: _162  and  _164
REMARK   62  A    between atoms: _164  and  _165
REMARK   63  A    between atoms: _164  and  _167
REMARK   64  A    between atoms: _167  and  _168
REMARK   65  A    between atoms: _171  and  _173
REMARK   66  A    between atoms: _173  and  _174
REMARK   67  A    between atoms: _173  and  _176
REMARK   68  A    between atoms: _176  and  _177
REMARK   69  A    between atoms: _183  and  _185
REMARK   70  A    between atoms: _185  and  _186
REMARK   71  A    between atoms: _185  and  _188
REMARK   72  A    between atoms: _188  and  _189
REMARK   73  A    between atoms: _194  and  _196
REMARK   74  A    between atoms: _196  and  _197
REMARK   75  A    between atoms: _196  and  _199
REMARK   76  A    between atoms: _199  and  _200
REMARK   77  A    between atoms: _202  and  _204
REMARK   78  A    between atoms: _204  and  _205
REMARK   79  A    between atoms: _204  and  _207
REMARK   80  A    between atoms: _207  and  _208
REMARK   81  A    between atoms: _208  and  _209
REMARK   82  A    between atoms: _209  and  _210
REMARK   83  A    between atoms: _220  and  _221
REMARK   84  A    between atoms: _226  and  _228
REMARK   85  A    between atoms: _228  and  _229
REMARK   86  A    between atoms: _228  and  _231
REMARK   87  A    between atoms: _231  and  _232
REMARK   88  A    between atoms: _242  and  _244
REMARK   89  A    between atoms: _244  and  _245
REMARK   90  A    between atoms: _244  and  _247
REMARK   91  A    between atoms: _247  and  _248
REMARK   92  A    between atoms: _251  and  _253
REMARK   93  A    between atoms: _253  and  _254
REMARK   94  A    between atoms: _253  and  _256
REMARK   95  A    between atoms: _259  and  _261
REMARK   96  A    between atoms: _261  and  _262
REMARK   97  A    between atoms: _261  and  _264
REMARK   98  A    between atoms: _264  and  _265
REMARK   99  A    between atoms: _265  and  _266
REMARK  100  A    between atoms: _269  and  _271
REMARK  101  A    between atoms: _271  and  _272
REMARK  102  A    between atoms: _271  and  _274
REMARK  103  A    between atoms: _274  and  _275
REMARK  104  A    between atoms: _275  and  _276
REMARK  105  A    between atoms: _281  and  _283
REMARK  106  A    between atoms: _283  and  _284
REMARK  107  A    between atoms: _283  and  _286
REMARK  108  A    between atoms: _286  and  _287
REMARK  109  A    between atoms: _287  and  _288
REMARK  110  A    between atoms: _288  and  _289
REMARK  111  A    between atoms: _298  and  _300
REMARK  112  A    between atoms: _300  and  _301
REMARK  113  A    between atoms: _300  and  _303
REMARK  114  A    between atoms: _303  and  _304
REMARK  115  A    between atoms: _304  and  _305
REMARK  116  A    between atoms: _310  and  _312
REMARK  117  A    between atoms: _312  and  _313
REMARK  118  A    between atoms: _312  and  _315
REMARK  119  A    between atoms: _315  and  _316
REMARK                            x       y       z     vdW  Elec       q    Type
REMARK                         _______ _______ _______ _____ _____    ______ ____
ROOT
ATOM      1  O   HOH     1      15.570  -1.769 -18.610  0.00  0.00    +0.000 OA
ENDROOT
TORSDOF 0
REMARK  Name = ../refined-set-2016/3afk/3afk_pocket.pdb
REMARK  119 active torsions:
REMARK  status: ('A' for Active; 'I' for Inactive)
REMARK    1  A    between atoms: _1  and  _3
REMARK    2  A    between atoms: _3  and  _4
REMARK    3  A    between atoms: _6  and  _8
REMARK    4  A    between atoms: _8  and  _9
REMARK    5  A    between atoms: _8  and  _11
REMARK    6  A    between atoms: _11  and  _12
REMARK    7  A    between atoms: _18  and  _19
REMARK    8  A    between atoms: _24  and  _26
REMARK    9  A    between atoms: _26  and  _27
REMARK   10  A    between atoms: _26  and  _29
REMARK   11  A    between atoms: _29  and  _30
REMARK   12  A    between atoms: _35  and  _37
REMARK   13  A    between atoms: _37  and  _38
REMARK   14  A    between atoms: _37  and  _40
REMARK   15  A    between atoms: _40  and  _41
REMARK   16  A    between atoms: _46  and  _48
REMARK   17  A    between atoms: _48  and  _49
REMARK   18  A    between atoms: _48  and  _51
REMARK   19  A    between atoms: _51  and  _52
REMARK   20  A    between atoms: _55  and  _57
REMARK   21  A    between atoms: _57  and  _58
REMARK   22  A    between atoms: _57  and  _60
REMARK   23  A    between atoms: _60  and  _61
REMARK   24  A    between atoms: _64  and  _66
REMARK   25  A    between atoms: _66  and  _67
REMARK   26  A    between atoms: _66  and  _69
REMARK   27  A    between atoms: _69  and  _70
REMARK   28  A    between atoms: _75  and  _77
REMARK   29  A    between atoms: _77  and  _78
REMARK   30  A    between atoms: _77  and  _80
REMARK   31  A    between atoms: _80  and  _81
REMARK   32  A    between atoms: _86  and  _87
REMARK   33  A    between atoms: _89  and  _91
REMARK   34  A    between atoms: _91  and  _92
REMARK   35  A    between atoms: _91  and  _94
REMARK   36  A    between atoms: _94  and  _95
REMARK   37  A    between atoms: _100  and  _102
REMARK   38  A    between atoms: _102  and  _103
REMARK   39  A    between atoms: _102  and  _105
REMARK   40  A    between atoms: _105  and  _106
REMARK   41  A    between atoms: _109  and  _111
REMARK   42  A    between atoms: _111  and  _112
REMARK   43  A    between atoms: _115  and  _117
REMARK   44  A    between atoms: _117  and  _118
REMARK   45  A    between atoms: _117  and  _120
REMARK   46  A    between atoms: _120  and  _121
REMARK   47  A    between atoms: _127  and  _129
REMARK   48  A    between atoms: _129  and  _130
REMARK   49  A    between atoms: _129  and  _132
REMARK   50  A    between atoms: _132  and  _133
REMARK   51  A    between atoms: _133  and  _134
REMARK   52  A    between atoms: _134  and  _135
REMARK   53  A    between atoms: _144  and  _146
REMARK   54  A    between atoms: _146  and  _147
REMARK   55  A    between atoms: _146  and  _149
REMARK   56  A    between atoms: _149  and  _150
REMARK   57  A    between atoms: _150  and  _151
REMARK   58  A    between atoms: _154  and  _156
REMARK   59  A    between atoms: _156  and  _157
REMARK   60  A    between atoms: _156  and  _159
REMARK   61  A    between atoms: _162  and  _164
REMARK   62  A    between atoms: _164  and  _165
REMARK   63  A    between atoms: _164  and  _167
REMARK   64  A    between atoms: _167  and  _168
REMARK   65  A    between atoms: _171  and  _173
REMARK   66  A    between atoms: _173  and  _174
REMARK   67  A    between atoms: _173  and  _176
REMARK   68  A    between atoms: _176  and  _177
REMARK   69  A    between atoms: _183  and  _185
REMARK   70  A    between atoms: _185  and  _186
REMARK   71  A    between atoms: _185  and  _188
REMARK   72  A    between atoms: _188  and  _189
REMARK   73  A    between atoms: _194  and  _196
REMARK   74  A    between atoms: _196  and  _197
REMARK   75  A    between atoms: _196  and  _199
REMARK   76  A    between atoms: _199  and  _200
REMARK   77  A    between atoms: _202  and  _204
REMARK   78  A    between atoms: _204  and  _205
REMARK   79  A    between atoms: _204  and  _207
REMARK   80  A    between atoms: _207  and  _208
REMARK   81  A    between atoms: _208  and  _209
REMARK   82  A    between atoms: _209  and  _210
REMARK   83  A    between atoms: _220  and  _221
REMARK   84  A    between atoms: _226  and  _228
REMARK   85  A    between atoms: _228  and  _229
REMARK   86  A    between atoms: _228  and  _231
REMARK   87  A    between atoms: _231  and  _232
REMARK   88  A    between atoms: _242  and  _244
REMARK   89  A    between atoms: _244  and  _245
REMARK   90  A    between atoms: _244  and  _247
REMARK   91  A    between atoms: _247  and  _248
REMARK   92  A    between atoms: _251  and  _253
REMARK   93  A    between atoms: _253  and  _254
REMARK   94  A    between atoms: _253  and  _256
REMARK   95  A    between atoms: _259  and  _261
REMARK   96  A    between atoms: _261  and  _262
REMARK   97  A    between atoms: _261  and  _264
REMARK   98  A    between atoms: _264  and  _265
REMARK   99  A    between atoms: _265  and  _266
REMARK  100  A    between atoms: _269  and  _271
REMARK  101  A    between atoms: _271  and  _272
REMARK  102  A    between atoms: _271  and  _274
REMARK  103  A    between atoms: _274  and  _275
REMARK  104  A    between atoms: _275  and  _276
REMARK  105  A    between atoms: _281  and  _283
REMARK  106  A    between atoms: _283  and  _284
REMARK  107  A    between atoms: _283  and  _286
REMARK  108  A    between atoms: _286  and  _287
REMARK  109  A    between atoms: _287  and  _288
REMARK  110  A    between atoms: _288  and  _289
REMARK  111  A    between atoms: _298  and  _300
REMARK  112  A    between atoms: _300  and  _301
REMARK  113  A    between atoms: _300  and  _303
REMARK  114  A    between atoms: _303  and  _304
REMARK  115  A    between atoms: _304  and  _305
REMARK  116  A    between atoms: _310  and  _312
REMARK  117  A    between atoms: _312  and  _313
REMARK  118  A    between atoms: _312  and  _315
REMARK  119  A    between atoms: _315  and  _316
REMARK                            x       y       z     vdW  Elec       q    Type
REMARK                         _______ _______ _______ _____ _____    ______ ____
ROOT
ATOM      1  O   HOH     1      13.789   6.708 -23.720  0.00  0.00    +0.000 OA
ENDROOT
TORSDOF 0
REMARK  Name = ../refined-set-2016/3afk/3afk_pocket.pdb
REMARK  119 active torsions:
REMARK  status: ('A' for Active; 'I' for Inactive)
REMARK    1  A    between atoms: _1  and  _3
REMARK    2  A    between atoms: _3  and  _4
REMARK    3  A    between atoms: _6  and  _8
REMARK    4  A    between atoms: _8  and  _9
REMARK    5  A    between atoms: _8  and  _11
REMARK    6  A    between atoms: _11  and  _12
REMARK    7  A    between atoms: _18  and  _19
REMARK    8  A    between atoms: _24  and  _26
REMARK    9  A    between atoms: _26  and  _27
REMARK   10  A    between atoms: _26  and  _29
REMARK   11  A    between atoms: _29  and  _30
REMARK   12  A    between atoms: _35  and  _37
REMARK   13  A    between atoms: _37  and  _38
REMARK   14  A    between atoms: _37  and  _40
REMARK   15  A    between atoms: _40  and  _41
REMARK   16  A    between atoms: _46  and  _48
REMARK   17  A    between atoms: _48  and  _49
REMARK   18  A    between atoms: _48  and  _51
REMARK   19  A    between atoms: _51  and  _52
REMARK   20  A    between atoms: _55  and  _57
REMARK   21  A    between atoms: _57  and  _58
REMARK   22  A    between atoms: _57  and  _60
REMARK   23  A    between atoms: _60  and  _61
REMARK   24  A    between atoms: _64  and  _66
REMARK   25  A    between atoms: _66  and  _67
REMARK   26  A    between atoms: _66  and  _69
REMARK   27  A    between atoms: _69  and  _70
REMARK   28  A    between atoms: _75  and  _77
REMARK   29  A    between atoms: _77  and  _78
REMARK   30  A    between atoms: _77  and  _80
REMARK   31  A    between atoms: _80  and  _81
REMARK   32  A    between atoms: _86  and  _87
REMARK   33  A    between atoms: _89  and  _91
REMARK   34  A    between atoms: _91  and  _92
REMARK   35  A    between atoms: _91  and  _94
REMARK   36  A    between atoms: _94  and  _95
REMARK   37  A    between atoms: _100  and  _102
REMARK   38  A    between atoms: _102  and  _103
REMARK   39  A    between atoms: _102  and  _105
REMARK   40  A    between atoms: _105  and  _106
REMARK   41  A    between atoms: _109  and  _111
REMARK   42  A    between atoms: _111  and  _112
REMARK   43  A    between atoms: _115  and  _117
REMARK   44  A    between atoms: _117  and  _118
REMARK   45  A    between atoms: _117  and  _120
REMARK   46  A    between atoms: _120  and  _121
REMARK   47  A    between atoms: _127  and  _129
REMARK   48  A    between atoms: _129  and  _130
REMARK   49  A    between atoms: _129  and  _132
REMARK   50  A    between atoms: _132  and  _133
REMARK   51  A    between atoms: _133  and  _134
REMARK   52  A    between atoms: _134  and  _135
REMARK   53  A    between atoms: _144  and  _146
REMARK   54  A    between atoms: _146  and  _147
REMARK   55  A    between atoms: _146  and  _149
REMARK   56  A    between atoms: _149  and  _150
REMARK   57  A    between atoms: _150  and  _151
REMARK   58  A    between atoms: _154  and  _156
REMARK   59  A    between atoms: _156  and  _157
REMARK   60  A    between atoms: _156  and  _159
REMARK   61  A    between atoms: _162  and  _164
REMARK   62  A    between atoms: _164  and  _165
REMARK   63  A    between atoms: _164  and  _167
REMARK   64  A    between atoms: _167  and  _168
REMARK   65  A    between atoms: _171  and  _173
REMARK   66  A    between atoms: _173  and  _174
REMARK   67  A    between atoms: _173  and  _176
REMARK   68  A    between atoms: _176  and  _177
REMARK   69  A    between atoms: _183  and  _185
REMARK   70  A    between atoms: _185  and  _186
REMARK   71  A    between atoms: _185  and  _188
REMARK   72  A    between atoms: _188  and  _189
REMARK   73  A    between atoms: _194  and  _196
REMARK   74  A    between atoms: _196  and  _197
REMARK   75  A    between atoms: _196  and  _199
REMARK   76  A    between atoms: _199  and  _200
REMARK   77  A    between atoms: _202  and  _204
REMARK   78  A    between atoms: _204  and  _205
REMARK   79  A    between atoms: _204  and  _207
REMARK   80  A    between atoms: _207  and  _208
REMARK   81  A    between atoms: _208  and  _209
REMARK   82  A    between atoms: _209  and  _210
REMARK   83  A    between atoms: _220  and  _221
REMARK   84  A    between atoms: _226  and  _228
REMARK   85  A    between atoms: _228  and  _229
REMARK   86  A    between atoms: _228  and  _231
REMARK   87  A    between atoms: _231  and  _232
REMARK   88  A    between atoms: _242  and  _244
REMARK   89  A    between atoms: _244  and  _245
REMARK   90  A    between atoms: _244  and  _247
REMARK   91  A    between atoms: _247  and  _248
REMARK   92  A    between atoms: _251  and  _253
REMARK   93  A    between atoms: _253  and  _254
REMARK   94  A    between atoms: _253  and  _256
REMARK   95  A    between atoms: _259  and  _261
REMARK   96  A    between atoms: _261  and  _262
REMARK   97  A    between atoms: _261  and  _264
REMARK   98  A    between atoms: _264  and  _265
REMARK   99  A    between atoms: _265  and  _266
REMARK  100  A    between atoms: _269  and  _271
REMARK  101  A    between atoms: _271  and  _272
REMARK  102  A    between atoms: _271  and  _274
REMARK  103  A    between atoms: _274  and  _275
REMARK  104  A    between atoms: _275  and  _276
REMARK  105  A    between atoms: _281  and  _283
REMARK  106  A    between atoms: _283  and  _284
REMARK  107  A    between atoms: _283  and  _286
REMARK  108  A    between atoms: _286  and  _287
REMARK  109  A    between atoms: _287  and  _288
REMARK  110  A    between atoms: _288  and  _289
REMARK  111  A    between atoms: _298  and  _300
REMARK  112  A    between atoms: _300  and  _301
REMARK  113  A    between atoms: _300  and  _303
REMARK  114  A    between atoms: _303  and  _304
REMARK  115  A    between atoms: _304  and  _305
REMARK  116  A    between atoms: _310  and  _312
REMARK  117  A    between atoms: _312  and  _313
REMARK  118  A    between atoms: _312  and  _315
REMARK  119  A    between atoms: _315  and  _316
REMARK                            x       y       z     vdW  Elec       q    Type
REMARK                         _______ _______ _______ _____ _____    ______ ____
ROOT
ATOM      1  O   HOH     1       3.756   3.710 -17.910  0.00  0.00    +0.000 OA
ENDROOT
TORSDOF 0
REMARK  Name = ../refined-set-2016/3afk/3afk_pocket.pdb
REMARK  119 active torsions:
REMARK  status: ('A' for Active; 'I' for Inactive)
REMARK    1  A    between atoms: _1  and  _3
REMARK    2  A    between atoms: _3  and  _4
REMARK    3  A    between atoms: _6  and  _8
REMARK    4  A    between atoms: _8  and  _9
REMARK    5  A    between atoms: _8  and  _11
REMARK    6  A    between atoms: _11  and  _12
REMARK    7  A    between atoms: _18  and  _19
REMARK    8  A    between atoms: _24  and  _26
REMARK    9  A    between atoms: _26  and  _27
REMARK   10  A    between atoms: _26  and  _29
REMARK   11  A    between atoms: _29  and  _30
REMARK   12  A    between atoms: _35  and  _37
REMARK   13  A    between atoms: _37  and  _38
REMARK   14  A    between atoms: _37  and  _40
REMARK   15  A    between atoms: _40  and  _41
REMARK   16  A    between atoms: _46  and  _48
REMARK   17  A    between atoms: _48  and  _49
REMARK   18  A    between atoms: _48  and  _51
REMARK   19  A    between atoms: _51  and  _52
REMARK   20  A    between atoms: _55  and  _57
REMARK   21  A    between atoms: _57  and  _58
REMARK   22  A    between atoms: _57  and  _60
REMARK   23  A    between atoms: _60  and  _61
REMARK   24  A    between atoms: _64  and  _66
REMARK   25  A    between atoms: _66  and  _67
REMARK   26  A    between atoms: _66  and  _69
REMARK   27  A    between atoms: _69  and  _70
REMARK   28  A    between atoms: _75  and  _77
REMARK   29  A    between atoms: _77  and  _78
REMARK   30  A    between atoms: _77  and  _80
REMARK   31  A    between atoms: _80  and  _81
REMARK   32  A    between atoms: _86  and  _87
REMARK   33  A    between atoms: _89  and  _91
REMARK   34  A    between atoms: _91  and  _92
REMARK   35  A    between atoms: _91  and  _94
REMARK   36  A    between atoms: _94  and  _95
REMARK   37  A    between atoms: _100  and  _102
REMARK   38  A    between atoms: _102  and  _103
REMARK   39  A    between atoms: _102  and  _105
REMARK   40  A    between atoms: _105  and  _106
REMARK   41  A    between atoms: _109  and  _111
REMARK   42  A    between atoms: _111  and  _112
REMARK   43  A    between atoms: _115  and  _117
REMARK   44  A    between atoms: _117  and  _118
REMARK   45  A    between atoms: _117  and  _120
REMARK   46  A    between atoms: _120  and  _121
REMARK   47  A    between atoms: _127  and  _129
REMARK   48  A    between atoms: _129  and  _130
REMARK   49  A    between atoms: _129  and  _132
REMARK   50  A    between atoms: _132  and  _133
REMARK   51  A    between atoms: _133  and  _134
REMARK   52  A    between atoms: _134  and  _135
REMARK   53  A    between atoms: _144  and  _146
REMARK   54  A    between atoms: _146  and  _147
REMARK   55  A    between atoms: _146  and  _149
REMARK   56  A    between atoms: _149  and  _150
REMARK   57  A    between atoms: _150  and  _151
REMARK   58  A    between atoms: _154  and  _156
REMARK   59  A    between atoms: _156  and  _157
REMARK   60  A    between atoms: _156  and  _159
REMARK   61  A    between atoms: _162  and  _164
REMARK   62  A    between atoms: _164  and  _165
REMARK   63  A    between atoms: _164  and  _167
REMARK   64  A    between atoms: _167  and  _168
REMARK   65  A    between atoms: _171  and  _173
REMARK   66  A    between atoms: _173  and  _174
REMARK   67  A    between atoms: _173  and  _176
REMARK   68  A    between atoms: _176  and  _177
REMARK   69  A    between atoms: _183  and  _185
REMARK   70  A    between atoms: _185  and  _186
REMARK   71  A    between atoms: _185  and  _188
REMARK   72  A    between atoms: _188  and  _189
REMARK   73  A    between atoms: _194  and  _196
REMARK   74  A    between atoms: _196  and  _197
REMARK   75  A    between atoms: _196  and  _199
REMARK   76  A    between atoms: _199  and  _200
REMARK   77  A    between atoms: _202  and  _204
REMARK   78  A    between atoms: _204  and  _205
REMARK   79  A    between atoms: _204  and  _207
REMARK   80  A    between atoms: _207  and  _208
REMARK   81  A    between atoms: _208  and  _209
REMARK   82  A    between atoms: _209  and  _210
REMARK   83  A    between atoms: _220  and  _221
REMARK   84  A    between atoms: _226  and  _228
REMARK   85  A    between atoms: _228  and  _229
REMARK   86  A    between atoms: _228  and  _231
REMARK   87  A    between atoms: _231  and  _232
REMARK   88  A    between atoms: _242  and  _244
REMARK   89  A    between atoms: _244  and  _245
REMARK   90  A    between atoms: _244  and  _247
REMARK   91  A    between atoms: _247  and  _248
REMARK   92  A    between atoms: _251  and  _253
REMARK   93  A    between atoms: _253  and  _254
REMARK   94  A    between atoms: _253  and  _256
REMARK   95  A    between atoms: _259  and  _261
REMARK   96  A    between atoms: _261  and  _262
REMARK   97  A    between atoms: _261  and  _264
REMARK   98  A    between atoms: _264  and  _265
REMARK   99  A    between atoms: _265  and  _266
REMARK  100  A    between atoms: _269  and  _271
REMARK  101  A    between atoms: _271  and  _272
REMARK  102  A    between atoms: _271  and  _274
REMARK  103  A    between atoms: _274  and  _275
REMARK  104  A    between atoms: _275  and  _276
REMARK  105  A    between atoms: _281  and  _283
REMARK  106  A    between atoms: _283  and  _284
REMARK  107  A    between atoms: _283  and  _286
REMARK  108  A    between atoms: _286  and  _287
REMARK  109  A    between atoms: _287  and  _288
REMARK  110  A    between atoms: _288  and  _289
REMARK  111  A    between atoms: _298  and  _300
REMARK  112  A    between atoms: _300  and  _301
REMARK  113  A    between atoms: _300  and  _303
REMARK  114  A    between atoms: _303  and  _304
REMARK  115  A    between atoms: _304  and  _305
REMARK  116  A    between atoms: _310  and  _312
REMARK  117  A    between atoms: _312  and  _313
REMARK  118  A    between atoms: _312  and  _315
REMARK  119  A    between atoms: _315  and  _316
REMARK                            x       y       z     vdW  Elec       q    Type
REMARK                         _______ _______ _______ _____ _____    ______ ____
ROOT
ATOM      1  O   HOH     1      12.746  -0.797 -23.394  0.00  0.00    +0.000 OA
ENDROOT
TORSDOF 0
