REMARK  Name = ../refined-set-2016/3pce/3pce_pocket.pdb
REMARK  141 active torsions:
REMARK  status: ('A' for Active; 'I' for Inactive)
REMARK    1  A    between atoms: _1  and  _3
REMARK    2  A    between atoms: _3  and  _4
REMARK    3  A    between atoms: _3  and  _6
REMARK    4  A    between atoms: _6  and  _7
REMARK    5  A    between atoms: _7  and  _8
REMARK    6  A    between atoms: _13  and  _15
REMARK    7  A    between atoms: _15  and  _16
REMARK    8  A    between atoms: _15  and  _18
REMARK    9  A    between atoms: _18  and  _19
REMARK   10  A    between atoms: _22  and  _24
REMARK   11  A    between atoms: _24  and  _25
REMARK   12  A    between atoms: _28  and  _30
REMARK   13  A    between atoms: _30  and  _31
REMARK   14  A    between atoms: _34  and  _35
REMARK   15  A    between atoms: _40  and  _42
REMARK   16  A    between atoms: _42  and  _43
REMARK   17  A    between atoms: _42  and  _45
REMARK   18  A    between atoms: _45  and  _46
REMARK   19  A    between atoms: _51  and  _52
REMARK   20  A    between atoms: _54  and  _56
REMARK   21  A    between atoms: _56  and  _57
REMARK   22  A    between atoms: _56  and  _59
REMARK   23  A    between atoms: _62  and  _64
REMARK   24  A    between atoms: _64  and  _65
REMARK   25  A    between atoms: _64  and  _67
REMARK   26  A    between atoms: _67  and  _68
REMARK   27  A    between atoms: _71  and  _73
REMARK   28  A    between atoms: _73  and  _74
REMARK   29  A    between atoms: _73  and  _76
REMARK   30  A    between atoms: _76  and  _77
REMARK   31  A    between atoms: _80  and  _82
REMARK   32  A    between atoms: _82  and  _83
REMARK   33  A    between atoms: _82  and  _85
REMARK   34  A    between atoms: _85  and  _86
REMARK   35  A    between atoms: _86  and  _87
REMARK   36  A    between atoms: _87  and  _88
REMARK   37  A    between atoms: _97  and  _99
REMARK   38  A    between atoms: _99  and  _100
REMARK   39  A    between atoms: _102  and  _104
REMARK   40  A    between atoms: _104  and  _105
REMARK   41  A    between atoms: _104  and  _107
REMARK   42  A    between atoms: _107  and  _108
REMARK   43  A    between atoms: _113  and  _114
REMARK   44  A    between atoms: _116  and  _118
REMARK   45  A    between atoms: _118  and  _119
REMARK   46  A    between atoms: _118  and  _121
REMARK   47  A    between atoms: _121  and  _122
REMARK   48  A    between atoms: _125  and  _127
REMARK   49  A    between atoms: _127  and  _128
REMARK   50  A    between atoms: _127  and  _130
REMARK   51  A    between atoms: _130  and  _131
REMARK   52  A    between atoms: _141  and  _143
REMARK   53  A    between atoms: _143  and  _144
REMARK   54  A    between atoms: _143  and  _146
REMARK   55  A    between atoms: _146  and  _147
REMARK   56  A    between atoms: _147  and  _148
REMARK   57  A    between atoms: _153  and  _155
REMARK   58  A    between atoms: _155  and  _156
REMARK   59  A    between atoms: _159  and  _161
REMARK   60  A    between atoms: _161  and  _162
REMARK   61  A    between atoms: _161  and  _164
REMARK   62  A    between atoms: _164  and  _165
REMARK   63  A    between atoms: _170  and  _171
REMARK   64  A    between atoms: _173  and  _175
REMARK   65  A    between atoms: _175  and  _176
REMARK   66  A    between atoms: _175  and  _178
REMARK   67  A    between atoms: _178  and  _179
REMARK   68  A    between atoms: _184  and  _186
REMARK   69  A    between atoms: _186  and  _187
REMARK   70  A    between atoms: _186  and  _189
REMARK   71  A    between atoms: _189  and  _190
REMARK   72  A    between atoms: _193  and  _195
REMARK   73  A    between atoms: _195  and  _196
REMARK   74  A    between atoms: _195  and  _198
REMARK   75  A    between atoms: _198  and  _199
REMARK   76  A    between atoms: _204  and  _205
REMARK   77  A    between atoms: _208  and  _209
REMARK   78  A    between atoms: _214  and  _216
REMARK   79  A    between atoms: _216  and  _217
REMARK   80  A    between atoms: _216  and  _219
REMARK   81  A    between atoms: _219  and  _220
REMARK   82  A    between atoms: _230  and  _232
REMARK   83  A    between atoms: _232  and  _233
REMARK   84  A    between atoms: _232  and  _235
REMARK   85  A    between atoms: _235  and  _236
REMARK   86  A    between atoms: _236  and  _237
REMARK   87  A    between atoms: _237  and  _238
REMARK   88  A    between atoms: _247  and  _249
REMARK   89  A    between atoms: _249  and  _250
REMARK   90  A    between atoms: _249  and  _252
REMARK   91  A    between atoms: _252  and  _253
REMARK   92  A    between atoms: _258  and  _260
REMARK   93  A    between atoms: _260  and  _261
REMARK   94  A    between atoms: _260  and  _263
REMARK   95  A    between atoms: _263  and  _264
REMARK   96  A    between atoms: _267  and  _269
REMARK   97  A    between atoms: _269  and  _270
REMARK   98  A    between atoms: _269  and  _272
REMARK   99  A    between atoms: _272  and  _273
REMARK  100  A    between atoms: _283  and  _285
REMARK  101  A    between atoms: _285  and  _286
REMARK  102  A    between atoms: _285  and  _288
REMARK  103  A    between atoms: _288  and  _289
REMARK  104  A    between atoms: _289  and  _290
REMARK  105  A    between atoms: _290  and  _291
REMARK  106  A    between atoms: _300  and  _302
REMARK  107  A    between atoms: _302  and  _303
REMARK  108  A    between atoms: _302  and  _305
REMARK  109  A    between atoms: _305  and  _306
REMARK  110  A    between atoms: _310  and  FE_383
REMARK  111  A    between atoms: _311  and  _313
REMARK  112  A    between atoms: _313  and  _314
REMARK  113  A    between atoms: _313  and  _316
REMARK  114  A    between atoms: _316  and  _317
REMARK  115  A    between atoms: _321  and  FE_383
REMARK  116  A    between atoms: _322  and  _324
REMARK  117  A    between atoms: _324  and  _325
REMARK  118  A    between atoms: _324  and  _327
REMARK  119  A    between atoms: _328  and  _329
REMARK  120  A    between atoms: _334  and  _336
REMARK  121  A    between atoms: _336  and  _337
REMARK  122  A    between atoms: _336  and  _339
REMARK  123  A    between atoms: _339  and  _340
REMARK  124  A    between atoms: _345  and  _346
REMARK  125  A    between atoms: _348  and  _350
REMARK  126  A    between atoms: _350  and  _351
REMARK  127  A    between atoms: _350  and  _353
REMARK  128  A    between atoms: _355  and  _357
REMARK  129  A    between atoms: _357  and  _358
REMARK  130  A    between atoms: _357  and  _360
REMARK  131  A    between atoms: _360  and  _361
REMARK  132  A    between atoms: _364  and  _366
REMARK  133  A    between atoms: _366  and  _367
REMARK  134  A    between atoms: _366  and  _369
REMARK  135  A    between atoms: _369  and  _370
REMARK  136  A    between atoms: _370  and  _371
REMARK  137  A    between atoms: _374  and  _376
REMARK  138  A    between atoms: _376  and  _377
REMARK  139  A    between atoms: _376  and  _379
REMARK  140  A    between atoms: _379  and  _380
REMARK  141  A    between atoms: _380  and  _381
REMARK                            x       y       z     vdW  Elec       q    Type
REMARK                         _______ _______ _______ _____ _____    ______ ____
ROOT
ATOM      1  C   GLY A   4      19.125  10.196  43.133  0.00  0.00    +0.246 C 
ATOM      2  N   PRO A   5      18.309  11.048  43.756  0.00  0.00    -0.272 N 
ATOM      3  CA  PRO A   5      18.556  11.570  45.099  0.00  0.00    +0.152 C 
ATOM      4  CB  PRO A   5      17.392  12.582  45.360  0.00  0.00    +0.031 C 
ATOM      5  CG  PRO A   5      16.343  12.198  44.387  0.00  0.00    +0.024 C 
ATOM      6  CD  PRO A   5      17.043  11.586  43.194  0.00  0.00    +0.094 C 
ATOM      7  O   GLY A   4      20.143   9.726  43.659  0.00  0.00    -0.273 OA
ENDROOT
BRANCH   3   8
ATOM      8  C   PRO A   5      18.604  10.567  46.231  0.00  0.00    +0.241 C 
ATOM      9  O   PRO A   5      19.241  10.830  47.280  0.00  0.00    -0.273 OA
ATOM     10  N   TYR A   6      17.958   9.425  46.118  0.00  0.00    -0.297 N 
ATOM     11  H   TYR A   6      17.475   9.244  45.215  0.00  0.00    +0.150 HD
BRANCH  10  12
ATOM     12  CA  TYR A   6      17.859   8.412  47.121  0.00  0.00    +0.153 C 
BRANCH  12  13
ATOM     13  C   TYR A   6      18.766   7.221  46.995  0.00  0.00    +0.241 C 
ATOM     14  O   TYR A   6      18.464   6.166  47.629  0.00  0.00    -0.273 OA
ATOM     15  N   VAL A   7      19.821   7.398  46.231  0.00  0.00    -0.298 N 
ATOM     16  H   VAL A   7      19.962   8.310  45.752  0.00  0.00    +0.150 HD
BRANCH  15  17
ATOM     17  CA  VAL A   7      20.803   6.322  46.047  0.00  0.00    +0.137 C 
BRANCH  17  18
ATOM     18  CB  VAL A   7      21.976   6.865  45.161  0.00  0.00    +0.026 C 
ATOM     19  CG2 VAL A   7      22.533   8.192  45.658  0.00  0.00    +0.002 C 
ATOM     20  CG1 VAL A   7      22.980   5.825  44.846  0.00  0.00    +0.002 C 
ENDBRANCH  17  18
BRANCH  17  21
ATOM     21  C   VAL A   7      21.266   5.724  47.368  0.00  0.00    +0.227 C 
ATOM     22  O   VAL A   7      21.547   4.497  47.439  0.00  0.00    -0.286 OA
ENDBRANCH  17  21
ENDBRANCH  15  17
ENDBRANCH  12  13
BRANCH  12  23
ATOM     23  CB  TYR A   6      16.384   7.973  47.349  0.00  0.00    +0.055 C 
BRANCH  23  24
ATOM     24  CG  TYR A   6      15.499   9.196  47.504  0.00  0.00    -0.020 A 
ATOM     25  CD2 TYR A   6      15.800  10.132  48.495  0.00  0.00    -0.001 A 
ATOM     26  CE2 TYR A   6      15.029  11.285  48.675  0.00  0.00    +0.036 A 
ATOM     27  CZ  TYR A   6      13.956  11.497  47.816  0.00  0.00    +0.134 A 
ATOM     28  CE1 TYR A   6      13.681  10.597  46.781  0.00  0.00    +0.036 A 
ATOM     29  CD1 TYR A   6      14.444   9.455  46.629  0.00  0.00    -0.001 A 
BRANCH  27  30
ATOM     30  OH  TYR A   6      13.174  12.628  47.944  0.00  0.00    -0.506 OA
ATOM     31  HH  TYR A   6      13.490  13.161  48.716  0.00  0.00    +0.292 HD
ENDBRANCH  27  30
ENDBRANCH  23  24
ENDBRANCH  12  23
ENDBRANCH  10  12
ENDBRANCH   3   8
BRANCH   1  32
ATOM     32  CA  GLY A   4      18.666   9.770  41.736  0.00  0.00    +0.176 C 
BRANCH  32  35
ATOM     33  C   ALA A   3      19.927   7.718  41.306  0.00  0.00    +0.241 C 
ATOM     34  O   ALA A   3      19.377   7.054  42.201  0.00  0.00    -0.273 OA
ATOM     35  N   GLY A   4      19.695   8.987  41.033  0.00  0.00    -0.295 N 
ATOM     36  H   GLY A   4      20.260   9.452  40.294  0.00  0.00    +0.150 HD
BRANCH  33  37
ATOM     37  CA  ALA A   3      21.064   7.068  40.486  0.00  0.00    +0.149 C 
ATOM     38  CB  ALA A   3      22.359   7.031  41.285  0.00  0.00    +0.031 C 
BRANCH  37  40
ATOM     39  C   THR A   2      20.317   7.739  38.271  0.00  0.00    +0.243 C 
ATOM     40  N   ALA A   3      21.223   7.819  39.236  0.00  0.00    -0.297 N 
ATOM     41  H   ALA A   3      22.059   8.423  39.105  0.00  0.00    +0.150 HD
ATOM     42  O   THR A   2      19.261   7.058  38.281  0.00  0.00    -0.273 OA
BRANCH  39  43
ATOM     43  CA  THR A   2      20.637   8.653  37.076  0.00  0.00    +0.176 C 
BRANCH  43  46
ATOM     44  C   GLN A   1      20.472   6.759  35.569  0.00  0.00    +0.238 C 
ATOM     45  O   GLN A   1      21.296   6.037  36.183  0.00  0.00    -0.274 OA
ATOM     46  N   THR A   2      20.097   7.971  35.876  0.00  0.00    -0.295 N 
ATOM     47  H   THR A   2      19.410   8.465  35.271  0.00  0.00    +0.150 HD
BRANCH  44  48
ATOM     48  CA  GLN A   1      19.780   6.212  34.280  0.00  0.00    +0.145 C 
BRANCH  48  49
ATOM     49  N   GLN A   1      20.706   5.280  33.691  0.00  0.00    -0.238 NA
ATOM     50  H   GLN A   1      21.266   4.722  34.367  0.00  0.00    +0.142 HD
ENDBRANCH  48  49
BRANCH  48  51
ATOM     51  CB  GLN A   1      18.378   5.735  34.607  0.00  0.00    +0.036 C 
BRANCH  51  52
ATOM     52  CG  GLN A   1      17.608   5.115  33.444  0.00  0.00    +0.087 C 
BRANCH  52  53
ATOM     53  CD  GLN A   1      16.827   6.191  32.687  0.00  0.00    +0.219 C 
ATOM     54  OE1 GLN A   1      15.638   6.362  32.891  0.00  0.00    -0.275 OA
ATOM     55  NE2 GLN A   1      17.493   6.971  31.848  0.00  0.00    -0.329 N 
ATOM     56 HE21 GLN A   1      18.508   6.812  31.685  0.00  0.00    +0.145 HD
ATOM     57 HE22 GLN A   1      17.001   7.742  31.353  0.00  0.00    +0.145 HD
ENDBRANCH  52  53
ENDBRANCH  51  52
ENDBRANCH  48  51
ENDBRANCH  44  48
ENDBRANCH  43  46
BRANCH  43  58
ATOM     58  CB  THR A   2      19.923  10.047  37.350  0.00  0.00    +0.137 C 
ATOM     59  CG2 THR A   2      18.391   9.848  37.616  0.00  0.00    +0.034 C 
BRANCH  58  60
ATOM     60  OG1 THR A   2      20.516  10.657  38.520  0.00  0.00    -0.382 OA
ATOM     61  HG1 THR A   2      21.482  10.801  38.361  0.00  0.00    +0.210 HD
ENDBRANCH  58  60
ENDBRANCH  43  58
ENDBRANCH  39  43
ENDBRANCH  37  40
ENDBRANCH  33  37
ENDBRANCH  32  35
ENDBRANCH   1  32
TORSDOF 22
REMARK  Name = ../refined-set-2016/3pce/3pce_pocket.pdb
REMARK  141 active torsions:
REMARK  status: ('A' for Active; 'I' for Inactive)
REMARK    1  A    between atoms: _1  and  _3
REMARK    2  A    between atoms: _3  and  _4
REMARK    3  A    between atoms: _3  and  _6
REMARK    4  A    between atoms: _6  and  _7
REMARK    5  A    between atoms: _7  and  _8
REMARK    6  A    between atoms: _13  and  _15
REMARK    7  A    between atoms: _15  and  _16
REMARK    8  A    between atoms: _15  and  _18
REMARK    9  A    between atoms: _18  and  _19
REMARK   10  A    between atoms: _22  and  _24
REMARK   11  A    between atoms: _24  and  _25
REMARK   12  A    between atoms: _28  and  _30
REMARK   13  A    between atoms: _30  and  _31
REMARK   14  A    between atoms: _34  and  _35
REMARK   15  A    between atoms: _40  and  _42
REMARK   16  A    between atoms: _42  and  _43
REMARK   17  A    between atoms: _42  and  _45
REMARK   18  A    between atoms: _45  and  _46
REMARK   19  A    between atoms: _51  and  _52
REMARK   20  A    between atoms: _54  and  _56
REMARK   21  A    between atoms: _56  and  _57
REMARK   22  A    between atoms: _56  and  _59
REMARK   23  A    between atoms: _62  and  _64
REMARK   24  A    between atoms: _64  and  _65
REMARK   25  A    between atoms: _64  and  _67
REMARK   26  A    between atoms: _67  and  _68
REMARK   27  A    between atoms: _71  and  _73
REMARK   28  A    between atoms: _73  and  _74
REMARK   29  A    between atoms: _73  and  _76
REMARK   30  A    between atoms: _76  and  _77
REMARK   31  A    between atoms: _80  and  _82
REMARK   32  A    between atoms: _82  and  _83
REMARK   33  A    between atoms: _82  and  _85
REMARK   34  A    between atoms: _85  and  _86
REMARK   35  A    between atoms: _86  and  _87
REMARK   36  A    between atoms: _87  and  _88
REMARK   37  A    between atoms: _97  and  _99
REMARK   38  A    between atoms: _99  and  _100
REMARK   39  A    between atoms: _102  and  _104
REMARK   40  A    between atoms: _104  and  _105
REMARK   41  A    between atoms: _104  and  _107
REMARK   42  A    between atoms: _107  and  _108
REMARK   43  A    between atoms: _113  and  _114
REMARK   44  A    between atoms: _116  and  _118
REMARK   45  A    between atoms: _118  and  _119
REMARK   46  A    between atoms: _118  and  _121
REMARK   47  A    between atoms: _121  and  _122
REMARK   48  A    between atoms: _125  and  _127
REMARK   49  A    between atoms: _127  and  _128
REMARK   50  A    between atoms: _127  and  _130
REMARK   51  A    between atoms: _130  and  _131
REMARK   52  A    between atoms: _141  and  _143
REMARK   53  A    between atoms: _143  and  _144
REMARK   54  A    between atoms: _143  and  _146
REMARK   55  A    between atoms: _146  and  _147
REMARK   56  A    between atoms: _147  and  _148
REMARK   57  A    between atoms: _153  and  _155
REMARK   58  A    between atoms: _155  and  _156
REMARK   59  A    between atoms: _159  and  _161
REMARK   60  A    between atoms: _161  and  _162
REMARK   61  A    between atoms: _161  and  _164
REMARK   62  A    between atoms: _164  and  _165
REMARK   63  A    between atoms: _170  and  _171
REMARK   64  A    between atoms: _173  and  _175
REMARK   65  A    between atoms: _175  and  _176
REMARK   66  A    between atoms: _175  and  _178
REMARK   67  A    between atoms: _178  and  _179
REMARK   68  A    between atoms: _184  and  _186
REMARK   69  A    between atoms: _186  and  _187
REMARK   70  A    between atoms: _186  and  _189
REMARK   71  A    between atoms: _189  and  _190
REMARK   72  A    between atoms: _193  and  _195
REMARK   73  A    between atoms: _195  and  _196
REMARK   74  A    between atoms: _195  and  _198
REMARK   75  A    between atoms: _198  and  _199
REMARK   76  A    between atoms: _204  and  _205
REMARK   77  A    between atoms: _208  and  _209
REMARK   78  A    between atoms: _214  and  _216
REMARK   79  A    between atoms: _216  and  _217
REMARK   80  A    between atoms: _216  and  _219
REMARK   81  A    between atoms: _219  and  _220
REMARK   82  A    between atoms: _230  and  _232
REMARK   83  A    between atoms: _232  and  _233
REMARK   84  A    between atoms: _232  and  _235
REMARK   85  A    between atoms: _235  and  _236
REMARK   86  A    between atoms: _236  and  _237
REMARK   87  A    between atoms: _237  and  _238
REMARK   88  A    between atoms: _247  and  _249
REMARK   89  A    between atoms: _249  and  _250
REMARK   90  A    between atoms: _249  and  _252
REMARK   91  A    between atoms: _252  and  _253
REMARK   92  A    between atoms: _258  and  _260
REMARK   93  A    between atoms: _260  and  _261
REMARK   94  A    between atoms: _260  and  _263
REMARK   95  A    between atoms: _263  and  _264
REMARK   96  A    between atoms: _267  and  _269
REMARK   97  A    between atoms: _269  and  _270
REMARK   98  A    between atoms: _269  and  _272
REMARK   99  A    between atoms: _272  and  _273
REMARK  100  A    between atoms: _283  and  _285
REMARK  101  A    between atoms: _285  and  _286
REMARK  102  A    between atoms: _285  and  _288
REMARK  103  A    between atoms: _288  and  _289
REMARK  104  A    between atoms: _289  and  _290
REMARK  105  A    between atoms: _290  and  _291
REMARK  106  A    between atoms: _300  and  _302
REMARK  107  A    between atoms: _302  and  _303
REMARK  108  A    between atoms: _302  and  _305
REMARK  109  A    between atoms: _305  and  _306
REMARK  110  A    between atoms: _310  and  FE_383
REMARK  111  A    between atoms: _311  and  _313
REMARK  112  A    between atoms: _313  and  _314
REMARK  113  A    between atoms: _313  and  _316
REMARK  114  A    between atoms: _316  and  _317
REMARK  115  A    between atoms: _321  and  FE_383
REMARK  116  A    between atoms: _322  and  _324
REMARK  117  A    between atoms: _324  and  _325
REMARK  118  A    between atoms: _324  and  _327
REMARK  119  A    between atoms: _328  and  _329
REMARK  120  A    between atoms: _334  and  _336
REMARK  121  A    between atoms: _336  and  _337
REMARK  122  A    between atoms: _336  and  _339
REMARK  123  A    between atoms: _339  and  _340
REMARK  124  A    between atoms: _345  and  _346
REMARK  125  A    between atoms: _348  and  _350
REMARK  126  A    between atoms: _350  and  _351
REMARK  127  A    between atoms: _350  and  _353
REMARK  128  A    between atoms: _355  and  _357
REMARK  129  A    between atoms: _357  and  _358
REMARK  130  A    between atoms: _357  and  _360
REMARK  131  A    between atoms: _360  and  _361
REMARK  132  A    between atoms: _364  and  _366
REMARK  133  A    between atoms: _366  and  _367
REMARK  134  A    between atoms: _366  and  _369
REMARK  135  A    between atoms: _369  and  _370
REMARK  136  A    between atoms: _370  and  _371
REMARK  137  A    between atoms: _374  and  _376
REMARK  138  A    between atoms: _376  and  _377
REMARK  139  A    between atoms: _376  and  _379
REMARK  140  A    between atoms: _379  and  _380
REMARK  141  A    between atoms: _380  and  _381
REMARK                            x       y       z     vdW  Elec       q    Type
REMARK                         _______ _______ _______ _____ _____    ______ ____
ROOT
ATOM      1  CA  ILE A   1      19.027   3.852  50.635  0.00  0.00    +0.133 C 
ENDROOT
BRANCH   1   2
ATOM      2  N   ILE A   1      19.808   4.962  50.066  0.00  0.00    -0.239 NA
ATOM      3  H   ILE A   1      19.350   5.707  49.502  0.00  0.00    +0.142 HD
ENDBRANCH   1   2
BRANCH   1   4
ATOM      4  CB  ILE A   1      17.504   4.108  50.676  0.00  0.00    +0.023 C 
ATOM      5  CG2 ILE A   1      17.136   5.579  50.990  0.00  0.00    +0.002 C 
BRANCH   4   6
ATOM      6  CG1 ILE A   1      16.758   3.562  49.435  0.00  0.00    +0.002 C 
ATOM      7  CD1 ILE A   1      15.300   4.240  49.420  0.00  0.00    +0.000 C 
ENDBRANCH   4   6
ENDBRANCH   1   4
BRANCH   1   8
ATOM      8  C   ILE A   1      19.476   2.512  50.117  0.00  0.00    +0.224 C 
ATOM      9  O   ILE A   1      19.443   1.502  50.845  0.00  0.00    -0.287 OA
ENDBRANCH   1   8
TORSDOF 4
REMARK  Name = ../refined-set-2016/3pce/3pce_pocket.pdb
REMARK  141 active torsions:
REMARK  status: ('A' for Active; 'I' for Inactive)
REMARK    1  A    between atoms: _1  and  _3
REMARK    2  A    between atoms: _3  and  _4
REMARK    3  A    between atoms: _3  and  _6
REMARK    4  A    between atoms: _6  and  _7
REMARK    5  A    between atoms: _7  and  _8
REMARK    6  A    between atoms: _13  and  _15
REMARK    7  A    between atoms: _15  and  _16
REMARK    8  A    between atoms: _15  and  _18
REMARK    9  A    between atoms: _18  and  _19
REMARK   10  A    between atoms: _22  and  _24
REMARK   11  A    between atoms: _24  and  _25
REMARK   12  A    between atoms: _28  and  _30
REMARK   13  A    between atoms: _30  and  _31
REMARK   14  A    between atoms: _34  and  _35
REMARK   15  A    between atoms: _40  and  _42
REMARK   16  A    between atoms: _42  and  _43
REMARK   17  A    between atoms: _42  and  _45
REMARK   18  A    between atoms: _45  and  _46
REMARK   19  A    between atoms: _51  and  _52
REMARK   20  A    between atoms: _54  and  _56
REMARK   21  A    between atoms: _56  and  _57
REMARK   22  A    between atoms: _56  and  _59
REMARK   23  A    between atoms: _62  and  _64
REMARK   24  A    between atoms: _64  and  _65
REMARK   25  A    between atoms: _64  and  _67
REMARK   26  A    between atoms: _67  and  _68
REMARK   27  A    between atoms: _71  and  _73
REMARK   28  A    between atoms: _73  and  _74
REMARK   29  A    between atoms: _73  and  _76
REMARK   30  A    between atoms: _76  and  _77
REMARK   31  A    between atoms: _80  and  _82
REMARK   32  A    between atoms: _82  and  _83
REMARK   33  A    between atoms: _82  and  _85
REMARK   34  A    between atoms: _85  and  _86
REMARK   35  A    between atoms: _86  and  _87
REMARK   36  A    between atoms: _87  and  _88
REMARK   37  A    between atoms: _97  and  _99
REMARK   38  A    between atoms: _99  and  _100
REMARK   39  A    between atoms: _102  and  _104
REMARK   40  A    between atoms: _104  and  _105
REMARK   41  A    between atoms: _104  and  _107
REMARK   42  A    between atoms: _107  and  _108
REMARK   43  A    between atoms: _113  and  _114
REMARK   44  A    between atoms: _116  and  _118
REMARK   45  A    between atoms: _118  and  _119
REMARK   46  A    between atoms: _118  and  _121
REMARK   47  A    between atoms: _121  and  _122
REMARK   48  A    between atoms: _125  and  _127
REMARK   49  A    between atoms: _127  and  _128
REMARK   50  A    between atoms: _127  and  _130
REMARK   51  A    between atoms: _130  and  _131
REMARK   52  A    between atoms: _141  and  _143
REMARK   53  A    between atoms: _143  and  _144
REMARK   54  A    between atoms: _143  and  _146
REMARK   55  A    between atoms: _146  and  _147
REMARK   56  A    between atoms: _147  and  _148
REMARK   57  A    between atoms: _153  and  _155
REMARK   58  A    between atoms: _155  and  _156
REMARK   59  A    between atoms: _159  and  _161
REMARK   60  A    between atoms: _161  and  _162
REMARK   61  A    between atoms: _161  and  _164
REMARK   62  A    between atoms: _164  and  _165
REMARK   63  A    between atoms: _170  and  _171
REMARK   64  A    between atoms: _173  and  _175
REMARK   65  A    between atoms: _175  and  _176
REMARK   66  A    between atoms: _175  and  _178
REMARK   67  A    between atoms: _178  and  _179
REMARK   68  A    between atoms: _184  and  _186
REMARK   69  A    between atoms: _186  and  _187
REMARK   70  A    between atoms: _186  and  _189
REMARK   71  A    between atoms: _189  and  _190
REMARK   72  A    between atoms: _193  and  _195
REMARK   73  A    between atoms: _195  and  _196
REMARK   74  A    between atoms: _195  and  _198
REMARK   75  A    between atoms: _198  and  _199
REMARK   76  A    between atoms: _204  and  _205
REMARK   77  A    between atoms: _208  and  _209
REMARK   78  A    between atoms: _214  and  _216
REMARK   79  A    between atoms: _216  and  _217
REMARK   80  A    between atoms: _216  and  _219
REMARK   81  A    between atoms: _219  and  _220
REMARK   82  A    between atoms: _230  and  _232
REMARK   83  A    between atoms: _232  and  _233
REMARK   84  A    between atoms: _232  and  _235
REMARK   85  A    between atoms: _235  and  _236
REMARK   86  A    between atoms: _236  and  _237
REMARK   87  A    between atoms: _237  and  _238
REMARK   88  A    between atoms: _247  and  _249
REMARK   89  A    between atoms: _249  and  _250
REMARK   90  A    between atoms: _249  and  _252
REMARK   91  A    between atoms: _252  and  _253
REMARK   92  A    between atoms: _258  and  _260
REMARK   93  A    between atoms: _260  and  _261
REMARK   94  A    between atoms: _260  and  _263
REMARK   95  A    between atoms: _263  and  _264
REMARK   96  A    between atoms: _267  and  _269
REMARK   97  A    between atoms: _269  and  _270
REMARK   98  A    between atoms: _269  and  _272
REMARK   99  A    between atoms: _272  and  _273
REMARK  100  A    between atoms: _283  and  _285
REMARK  101  A    between atoms: _285  and  _286
REMARK  102  A    between atoms: _285  and  _288
REMARK  103  A    between atoms: _288  and  _289
REMARK  104  A    between atoms: _289  and  _290
REMARK  105  A    between atoms: _290  and  _291
REMARK  106  A    between atoms: _300  and  _302
REMARK  107  A    between atoms: _302  and  _303
REMARK  108  A    between atoms: _302  and  _305
REMARK  109  A    between atoms: _305  and  _306
REMARK  110  A    between atoms: _310  and  FE_383
REMARK  111  A    between atoms: _311  and  _313
REMARK  112  A    between atoms: _313  and  _314
REMARK  113  A    between atoms: _313  and  _316
REMARK  114  A    between atoms: _316  and  _317
REMARK  115  A    between atoms: _321  and  FE_383
REMARK  116  A    between atoms: _322  and  _324
REMARK  117  A    between atoms: _324  and  _325
REMARK  118  A    between atoms: _324  and  _327
REMARK  119  A    between atoms: _328  and  _329
REMARK  120  A    between atoms: _334  and  _336
REMARK  121  A    between atoms: _336  and  _337
REMARK  122  A    between atoms: _336  and  _339
REMARK  123  A    between atoms: _339  and  _340
REMARK  124  A    between atoms: _345  and  _346
REMARK  125  A    between atoms: _348  and  _350
REMARK  126  A    between atoms: _350  and  _351
REMARK  127  A    between atoms: _350  and  _353
REMARK  128  A    between atoms: _355  and  _357
REMARK  129  A    between atoms: _357  and  _358
REMARK  130  A    between atoms: _357  and  _360
REMARK  131  A    between atoms: _360  and  _361
REMARK  132  A    between atoms: _364  and  _366
REMARK  133  A    between atoms: _366  and  _367
REMARK  134  A    between atoms: _366  and  _369
REMARK  135  A    between atoms: _369  and  _370
REMARK  136  A    between atoms: _370  and  _371
REMARK  137  A    between atoms: _374  and  _376
REMARK  138  A    between atoms: _376  and  _377
REMARK  139  A    between atoms: _376  and  _379
REMARK  140  A    between atoms: _379  and  _380
REMARK  141  A    between atoms: _380  and  _381
REMARK                            x       y       z     vdW  Elec       q    Type
REMARK                         _______ _______ _______ _____ _____    ______ ____
ROOT
ATOM      1  CA  ASP A   1      23.980  13.822  47.372  0.00  0.00    +0.144 C 
ENDROOT
BRANCH   1   2
ATOM      2  N   ASP A   1      24.606  15.153  47.496  0.00  0.00    -0.239 NA
ATOM      3  H   ASP A   1      24.807  15.712  46.642  0.00  0.00    +0.142 HD
ENDBRANCH   1   2
BRANCH   1   4
ATOM      4  C   ASP A   1      24.774  12.884  46.505  0.00  0.00    +0.225 C 
ATOM      5  O   ASP A   1      24.237  11.895  45.946  0.00  0.00    -0.287 OA
ENDBRANCH   1   4
BRANCH   1   6
ATOM      6  CB  ASP A   1      22.500  14.032  46.935  0.00  0.00    +0.139 C 
BRANCH   6   7
ATOM      7  CG  ASP A   1      22.416  14.972  45.755  0.00  0.00    +0.367 C 
ATOM      8  OD2 ASP A   1      21.322  15.526  45.543  0.00  0.00    -0.246 OA
ATOM      9  OD1 ASP A   1      23.372  15.211  44.990  0.00  0.00    -0.246 OA
ENDBRANCH   6   7
ENDBRANCH   1   6
TORSDOF 4
REMARK  Name = ../refined-set-2016/3pce/3pce_pocket.pdb
REMARK  141 active torsions:
REMARK  status: ('A' for Active; 'I' for Inactive)
REMARK    1  A    between atoms: _1  and  _3
REMARK    2  A    between atoms: _3  and  _4
REMARK    3  A    between atoms: _3  and  _6
REMARK    4  A    between atoms: _6  and  _7
REMARK    5  A    between atoms: _7  and  _8
REMARK    6  A    between atoms: _13  and  _15
REMARK    7  A    between atoms: _15  and  _16
REMARK    8  A    between atoms: _15  and  _18
REMARK    9  A    between atoms: _18  and  _19
REMARK   10  A    between atoms: _22  and  _24
REMARK   11  A    between atoms: _24  and  _25
REMARK   12  A    between atoms: _28  and  _30
REMARK   13  A    between atoms: _30  and  _31
REMARK   14  A    between atoms: _34  and  _35
REMARK   15  A    between atoms: _40  and  _42
REMARK   16  A    between atoms: _42  and  _43
REMARK   17  A    between atoms: _42  and  _45
REMARK   18  A    between atoms: _45  and  _46
REMARK   19  A    between atoms: _51  and  _52
REMARK   20  A    between atoms: _54  and  _56
REMARK   21  A    between atoms: _56  and  _57
REMARK   22  A    between atoms: _56  and  _59
REMARK   23  A    between atoms: _62  and  _64
REMARK   24  A    between atoms: _64  and  _65
REMARK   25  A    between atoms: _64  and  _67
REMARK   26  A    between atoms: _67  and  _68
REMARK   27  A    between atoms: _71  and  _73
REMARK   28  A    between atoms: _73  and  _74
REMARK   29  A    between atoms: _73  and  _76
REMARK   30  A    between atoms: _76  and  _77
REMARK   31  A    between atoms: _80  and  _82
REMARK   32  A    between atoms: _82  and  _83
REMARK   33  A    between atoms: _82  and  _85
REMARK   34  A    between atoms: _85  and  _86
REMARK   35  A    between atoms: _86  and  _87
REMARK   36  A    between atoms: _87  and  _88
REMARK   37  A    between atoms: _97  and  _99
REMARK   38  A    between atoms: _99  and  _100
REMARK   39  A    between atoms: _102  and  _104
REMARK   40  A    between atoms: _104  and  _105
REMARK   41  A    between atoms: _104  and  _107
REMARK   42  A    between atoms: _107  and  _108
REMARK   43  A    between atoms: _113  and  _114
REMARK   44  A    between atoms: _116  and  _118
REMARK   45  A    between atoms: _118  and  _119
REMARK   46  A    between atoms: _118  and  _121
REMARK   47  A    between atoms: _121  and  _122
REMARK   48  A    between atoms: _125  and  _127
REMARK   49  A    between atoms: _127  and  _128
REMARK   50  A    between atoms: _127  and  _130
REMARK   51  A    between atoms: _130  and  _131
REMARK   52  A    between atoms: _141  and  _143
REMARK   53  A    between atoms: _143  and  _144
REMARK   54  A    between atoms: _143  and  _146
REMARK   55  A    between atoms: _146  and  _147
REMARK   56  A    between atoms: _147  and  _148
REMARK   57  A    between atoms: _153  and  _155
REMARK   58  A    between atoms: _155  and  _156
REMARK   59  A    between atoms: _159  and  _161
REMARK   60  A    between atoms: _161  and  _162
REMARK   61  A    between atoms: _161  and  _164
REMARK   62  A    between atoms: _164  and  _165
REMARK   63  A    between atoms: _170  and  _171
REMARK   64  A    between atoms: _173  and  _175
REMARK   65  A    between atoms: _175  and  _176
REMARK   66  A    between atoms: _175  and  _178
REMARK   67  A    between atoms: _178  and  _179
REMARK   68  A    between atoms: _184  and  _186
REMARK   69  A    between atoms: _186  and  _187
REMARK   70  A    between atoms: _186  and  _189
REMARK   71  A    between atoms: _189  and  _190
REMARK   72  A    between atoms: _193  and  _195
REMARK   73  A    between atoms: _195  and  _196
REMARK   74  A    between atoms: _195  and  _198
REMARK   75  A    between atoms: _198  and  _199
REMARK   76  A    between atoms: _204  and  _205
REMARK   77  A    between atoms: _208  and  _209
REMARK   78  A    between atoms: _214  and  _216
REMARK   79  A    between atoms: _216  and  _217
REMARK   80  A    between atoms: _216  and  _219
REMARK   81  A    between atoms: _219  and  _220
REMARK   82  A    between atoms: _230  and  _232
REMARK   83  A    between atoms: _232  and  _233
REMARK   84  A    between atoms: _232  and  _235
REMARK   85  A    between atoms: _235  and  _236
REMARK   86  A    between atoms: _236  and  _237
REMARK   87  A    between atoms: _237  and  _238
REMARK   88  A    between atoms: _247  and  _249
REMARK   89  A    between atoms: _249  and  _250
REMARK   90  A    between atoms: _249  and  _252
REMARK   91  A    between atoms: _252  and  _253
REMARK   92  A    between atoms: _258  and  _260
REMARK   93  A    between atoms: _260  and  _261
REMARK   94  A    between atoms: _260  and  _263
REMARK   95  A    between atoms: _263  and  _264
REMARK   96  A    between atoms: _267  and  _269
REMARK   97  A    between atoms: _269  and  _270
REMARK   98  A    between atoms: _269  and  _272
REMARK   99  A    between atoms: _272  and  _273
REMARK  100  A    between atoms: _283  and  _285
REMARK  101  A    between atoms: _285  and  _286
REMARK  102  A    between atoms: _285  and  _288
REMARK  103  A    between atoms: _288  and  _289
REMARK  104  A    between atoms: _289  and  _290
REMARK  105  A    between atoms: _290  and  _291
REMARK  106  A    between atoms: _300  and  _302
REMARK  107  A    between atoms: _302  and  _303
REMARK  108  A    between atoms: _302  and  _305
REMARK  109  A    between atoms: _305  and  _306
REMARK  110  A    between atoms: _310  and  FE_383
REMARK  111  A    between atoms: _311  and  _313
REMARK  112  A    between atoms: _313  and  _314
REMARK  113  A    between atoms: _313  and  _316
REMARK  114  A    between atoms: _316  and  _317
REMARK  115  A    between atoms: _321  and  FE_383
REMARK  116  A    between atoms: _322  and  _324
REMARK  117  A    between atoms: _324  and  _325
REMARK  118  A    between atoms: _324  and  _327
REMARK  119  A    between atoms: _328  and  _329
REMARK  120  A    between atoms: _334  and  _336
REMARK  121  A    between atoms: _336  and  _337
REMARK  122  A    between atoms: _336  and  _339
REMARK  123  A    between atoms: _339  and  _340
REMARK  124  A    between atoms: _345  and  _346
REMARK  125  A    between atoms: _348  and  _350
REMARK  126  A    between atoms: _350  and  _351
REMARK  127  A    between atoms: _350  and  _353
REMARK  128  A    between atoms: _355  and  _357
REMARK  129  A    between atoms: _357  and  _358
REMARK  130  A    between atoms: _357  and  _360
REMARK  131  A    between atoms: _360  and  _361
REMARK  132  A    between atoms: _364  and  _366
REMARK  133  A    between atoms: _366  and  _367
REMARK  134  A    between atoms: _366  and  _369
REMARK  135  A    between atoms: _369  and  _370
REMARK  136  A    between atoms: _370  and  _371
REMARK  137  A    between atoms: _374  and  _376
REMARK  138  A    between atoms: _376  and  _377
REMARK  139  A    between atoms: _376  and  _379
REMARK  140  A    between atoms: _379  and  _380
REMARK  141  A    between atoms: _380  and  _381
REMARK                            x       y       z     vdW  Elec       q    Type
REMARK                         _______ _______ _______ _____ _____    ______ ____
ROOT
ATOM      1  CB  ARG A   1      19.866  13.410  41.787  0.00  0.00    +0.030 C 
ENDROOT
BRANCH   1   2
ATOM      2  CA  ARG A   1      20.905  12.911  40.784  0.00  0.00    +0.145 C 
BRANCH   2   3
ATOM      3  C   ARG A   1      21.402  14.066  39.917  0.00  0.00    +0.238 C 
ATOM      4  O   ARG A   1      22.219  14.889  40.358  0.00  0.00    -0.274 OA
ATOM      5  N   GLY A   2      20.960  14.081  38.700  0.00  0.00    -0.297 N 
ATOM      6  H   GLY A   2      20.277  13.347  38.424  0.00  0.00    +0.150 HD
BRANCH   5   7
ATOM      7  CA  GLY A   2      21.356  15.061  37.683  0.00  0.00    +0.163 C 
BRANCH   7   8
ATOM      8  C   GLY A   2      22.378  14.437  36.726  0.00  0.00    +0.229 C 
ATOM      9  O   GLY A   2      22.617  15.024  35.676  0.00  0.00    -0.286 OA
ENDBRANCH   7   8
ENDBRANCH   5   7
ENDBRANCH   2   3
BRANCH   2  10
ATOM     10  N   ARG A   1      22.044  12.324  41.491  0.00  0.00    -0.238 NA
ATOM     11  H   ARG A   1      22.029  12.260  42.529  0.00  0.00    +0.142 HD
ENDBRANCH   2  10
ENDBRANCH   1   2
BRANCH   1  12
ATOM     12  CG  ARG A   1      20.282  14.723  42.453  0.00  0.00    +0.045 C 
BRANCH  12  13
ATOM     13  CD  ARG A   1      19.235  15.268  43.424  0.00  0.00    +0.174 C 
BRANCH  13  14
ATOM     14  NE  ARG A   1      18.688  16.564  43.003  0.00  0.00    -0.265 N 
ATOM     15  CZ  ARG A   1      19.050  17.748  43.522  0.00  0.00    +0.342 C 
ATOM     16  NH2 ARG A   1      19.956  17.823  44.507  0.00  0.00    -0.292 N 
ATOM     17 HH21 ARG A   1      20.225  18.749  44.897  0.00  0.00    +0.255 HD
ATOM     18 HH22 ARG A   1      20.390  16.955  44.881  0.00  0.00    +0.255 HD
ATOM     19  NH1 ARG A   1      18.562  18.926  43.111  0.00  0.00    -0.292 N 
ATOM     20 HH11 ARG A   1      18.886  19.808  43.557  0.00  0.00    +0.255 HD
ATOM     21 HH12 ARG A   1      17.859  18.959  42.346  0.00  0.00    +0.255 HD
ATOM     22  HE  ARG A   1      17.970  16.565  42.250  0.00  0.00    +0.259 HD
ENDBRANCH  13  14
ENDBRANCH  12  13
ENDBRANCH   1  12
TORSDOF 8
REMARK  Name = ../refined-set-2016/3pce/3pce_pocket.pdb
REMARK  141 active torsions:
REMARK  status: ('A' for Active; 'I' for Inactive)
REMARK    1  A    between atoms: _1  and  _3
REMARK    2  A    between atoms: _3  and  _4
REMARK    3  A    between atoms: _3  and  _6
REMARK    4  A    between atoms: _6  and  _7
REMARK    5  A    between atoms: _7  and  _8
REMARK    6  A    between atoms: _13  and  _15
REMARK    7  A    between atoms: _15  and  _16
REMARK    8  A    between atoms: _15  and  _18
REMARK    9  A    between atoms: _18  and  _19
REMARK   10  A    between atoms: _22  and  _24
REMARK   11  A    between atoms: _24  and  _25
REMARK   12  A    between atoms: _28  and  _30
REMARK   13  A    between atoms: _30  and  _31
REMARK   14  A    between atoms: _34  and  _35
REMARK   15  A    between atoms: _40  and  _42
REMARK   16  A    between atoms: _42  and  _43
REMARK   17  A    between atoms: _42  and  _45
REMARK   18  A    between atoms: _45  and  _46
REMARK   19  A    between atoms: _51  and  _52
REMARK   20  A    between atoms: _54  and  _56
REMARK   21  A    between atoms: _56  and  _57
REMARK   22  A    between atoms: _56  and  _59
REMARK   23  A    between atoms: _62  and  _64
REMARK   24  A    between atoms: _64  and  _65
REMARK   25  A    between atoms: _64  and  _67
REMARK   26  A    between atoms: _67  and  _68
REMARK   27  A    between atoms: _71  and  _73
REMARK   28  A    between atoms: _73  and  _74
REMARK   29  A    between atoms: _73  and  _76
REMARK   30  A    between atoms: _76  and  _77
REMARK   31  A    between atoms: _80  and  _82
REMARK   32  A    between atoms: _82  and  _83
REMARK   33  A    between atoms: _82  and  _85
REMARK   34  A    between atoms: _85  and  _86
REMARK   35  A    between atoms: _86  and  _87
REMARK   36  A    between atoms: _87  and  _88
REMARK   37  A    between atoms: _97  and  _99
REMARK   38  A    between atoms: _99  and  _100
REMARK   39  A    between atoms: _102  and  _104
REMARK   40  A    between atoms: _104  and  _105
REMARK   41  A    between atoms: _104  and  _107
REMARK   42  A    between atoms: _107  and  _108
REMARK   43  A    between atoms: _113  and  _114
REMARK   44  A    between atoms: _116  and  _118
REMARK   45  A    between atoms: _118  and  _119
REMARK   46  A    between atoms: _118  and  _121
REMARK   47  A    between atoms: _121  and  _122
REMARK   48  A    between atoms: _125  and  _127
REMARK   49  A    between atoms: _127  and  _128
REMARK   50  A    between atoms: _127  and  _130
REMARK   51  A    between atoms: _130  and  _131
REMARK   52  A    between atoms: _141  and  _143
REMARK   53  A    between atoms: _143  and  _144
REMARK   54  A    between atoms: _143  and  _146
REMARK   55  A    between atoms: _146  and  _147
REMARK   56  A    between atoms: _147  and  _148
REMARK   57  A    between atoms: _153  and  _155
REMARK   58  A    between atoms: _155  and  _156
REMARK   59  A    between atoms: _159  and  _161
REMARK   60  A    between atoms: _161  and  _162
REMARK   61  A    between atoms: _161  and  _164
REMARK   62  A    between atoms: _164  and  _165
REMARK   63  A    between atoms: _170  and  _171
REMARK   64  A    between atoms: _173  and  _175
REMARK   65  A    between atoms: _175  and  _176
REMARK   66  A    between atoms: _175  and  _178
REMARK   67  A    between atoms: _178  and  _179
REMARK   68  A    between atoms: _184  and  _186
REMARK   69  A    between atoms: _186  and  _187
REMARK   70  A    between atoms: _186  and  _189
REMARK   71  A    between atoms: _189  and  _190
REMARK   72  A    between atoms: _193  and  _195
REMARK   73  A    between atoms: _195  and  _196
REMARK   74  A    between atoms: _195  and  _198
REMARK   75  A    between atoms: _198  and  _199
REMARK   76  A    between atoms: _204  and  _205
REMARK   77  A    between atoms: _208  and  _209
REMARK   78  A    between atoms: _214  and  _216
REMARK   79  A    between atoms: _216  and  _217
REMARK   80  A    between atoms: _216  and  _219
REMARK   81  A    between atoms: _219  and  _220
REMARK   82  A    between atoms: _230  and  _232
REMARK   83  A    between atoms: _232  and  _233
REMARK   84  A    between atoms: _232  and  _235
REMARK   85  A    between atoms: _235  and  _236
REMARK   86  A    between atoms: _236  and  _237
REMARK   87  A    between atoms: _237  and  _238
REMARK   88  A    between atoms: _247  and  _249
REMARK   89  A    between atoms: _249  and  _250
REMARK   90  A    between atoms: _249  and  _252
REMARK   91  A    between atoms: _252  and  _253
REMARK   92  A    between atoms: _258  and  _260
REMARK   93  A    between atoms: _260  and  _261
REMARK   94  A    between atoms: _260  and  _263
REMARK   95  A    between atoms: _263  and  _264
REMARK   96  A    between atoms: _267  and  _269
REMARK   97  A    between atoms: _269  and  _270
REMARK   98  A    between atoms: _269  and  _272
REMARK   99  A    between atoms: _272  and  _273
REMARK  100  A    between atoms: _283  and  _285
REMARK  101  A    between atoms: _285  and  _286
REMARK  102  A    between atoms: _285  and  _288
REMARK  103  A    between atoms: _288  and  _289
REMARK  104  A    between atoms: _289  and  _290
REMARK  105  A    between atoms: _290  and  _291
REMARK  106  A    between atoms: _300  and  _302
REMARK  107  A    between atoms: _302  and  _303
REMARK  108  A    between atoms: _302  and  _305
REMARK  109  A    between atoms: _305  and  _306
REMARK  110  A    between atoms: _310  and  FE_383
REMARK  111  A    between atoms: _311  and  _313
REMARK  112  A    between atoms: _313  and  _314
REMARK  113  A    between atoms: _313  and  _316
REMARK  114  A    between atoms: _316  and  _317
REMARK  115  A    between atoms: _321  and  FE_383
REMARK  116  A    between atoms: _322  and  _324
REMARK  117  A    between atoms: _324  and  _325
REMARK  118  A    between atoms: _324  and  _327
REMARK  119  A    between atoms: _328  and  _329
REMARK  120  A    between atoms: _334  and  _336
REMARK  121  A    between atoms: _336  and  _337
REMARK  122  A    between atoms: _336  and  _339
REMARK  123  A    between atoms: _339  and  _340
REMARK  124  A    between atoms: _345  and  _346
REMARK  125  A    between atoms: _348  and  _350
REMARK  126  A    between atoms: _350  and  _351
REMARK  127  A    between atoms: _350  and  _353
REMARK  128  A    between atoms: _355  and  _357
REMARK  129  A    between atoms: _357  and  _358
REMARK  130  A    between atoms: _357  and  _360
REMARK  131  A    between atoms: _360  and  _361
REMARK  132  A    between atoms: _364  and  _366
REMARK  133  A    between atoms: _366  and  _367
REMARK  134  A    between atoms: _366  and  _369
REMARK  135  A    between atoms: _369  and  _370
REMARK  136  A    between atoms: _370  and  _371
REMARK  137  A    between atoms: _374  and  _376
REMARK  138  A    between atoms: _376  and  _377
REMARK  139  A    between atoms: _376  and  _379
REMARK  140  A    between atoms: _379  and  _380
REMARK  141  A    between atoms: _380  and  _381
REMARK                            x       y       z     vdW  Elec       q    Type
REMARK                         _______ _______ _______ _____ _____    ______ ____
ROOT
ATOM      1  CG  TYR A   1      16.966  15.166  34.592  0.00  0.00    -0.020 A 
ATOM      2  CD2 TYR A   1      16.320  15.540  35.797  0.00  0.00    -0.001 A 
ATOM      3  CE2 TYR A   1      16.738  15.005  37.015  0.00  0.00    +0.036 A 
ATOM      4  CZ  TYR A   1      17.745  14.057  37.034  0.00  0.00    +0.134 A 
ATOM      5  CE1 TYR A   1      18.348  13.634  35.832  0.00  0.00    +0.036 A 
ATOM      6  CD1 TYR A   1      17.947  14.192  34.638  0.00  0.00    -0.001 A 
ENDROOT
BRANCH   4   7
ATOM      7  OH  TYR A   1      18.203  13.393  38.167  0.00  0.00    -0.506 OA
ATOM      8  HH  TYR A   1      17.735  13.744  38.966  0.00  0.00    +0.292 HD
ENDBRANCH   4   7
BRANCH   1   9
ATOM      9  CB  TYR A   1      16.546  15.744  33.239  0.00  0.00    +0.051 C 
BRANCH   9  10
ATOM     10  CA  TYR A   1      15.737  17.029  33.385  0.00  0.00    +0.137 C 
BRANCH  10  11
ATOM     11  N   TYR A   1      15.372  17.632  32.072  0.00  0.00    -0.239 NA
ATOM     12  H   TYR A   1      16.014  17.513  31.263  0.00  0.00    +0.142 HD
ENDBRANCH  10  11
BRANCH  10  13
ATOM     13  C   TYR A   1      16.602  18.157  34.030  0.00  0.00    +0.224 C 
ATOM     14  O   TYR A   1      17.847  18.207  33.828  0.00  0.00    -0.287 OA
ENDBRANCH  10  13
ENDBRANCH   9  10
ENDBRANCH   1   9
TORSDOF 5
REMARK  Name = ../refined-set-2016/3pce/3pce_pocket.pdb
REMARK  141 active torsions:
REMARK  status: ('A' for Active; 'I' for Inactive)
REMARK    1  A    between atoms: _1  and  _3
REMARK    2  A    between atoms: _3  and  _4
REMARK    3  A    between atoms: _3  and  _6
REMARK    4  A    between atoms: _6  and  _7
REMARK    5  A    between atoms: _7  and  _8
REMARK    6  A    between atoms: _13  and  _15
REMARK    7  A    between atoms: _15  and  _16
REMARK    8  A    between atoms: _15  and  _18
REMARK    9  A    between atoms: _18  and  _19
REMARK   10  A    between atoms: _22  and  _24
REMARK   11  A    between atoms: _24  and  _25
REMARK   12  A    between atoms: _28  and  _30
REMARK   13  A    between atoms: _30  and  _31
REMARK   14  A    between atoms: _34  and  _35
REMARK   15  A    between atoms: _40  and  _42
REMARK   16  A    between atoms: _42  and  _43
REMARK   17  A    between atoms: _42  and  _45
REMARK   18  A    between atoms: _45  and  _46
REMARK   19  A    between atoms: _51  and  _52
REMARK   20  A    between atoms: _54  and  _56
REMARK   21  A    between atoms: _56  and  _57
REMARK   22  A    between atoms: _56  and  _59
REMARK   23  A    between atoms: _62  and  _64
REMARK   24  A    between atoms: _64  and  _65
REMARK   25  A    between atoms: _64  and  _67
REMARK   26  A    between atoms: _67  and  _68
REMARK   27  A    between atoms: _71  and  _73
REMARK   28  A    between atoms: _73  and  _74
REMARK   29  A    between atoms: _73  and  _76
REMARK   30  A    between atoms: _76  and  _77
REMARK   31  A    between atoms: _80  and  _82
REMARK   32  A    between atoms: _82  and  _83
REMARK   33  A    between atoms: _82  and  _85
REMARK   34  A    between atoms: _85  and  _86
REMARK   35  A    between atoms: _86  and  _87
REMARK   36  A    between atoms: _87  and  _88
REMARK   37  A    between atoms: _97  and  _99
REMARK   38  A    between atoms: _99  and  _100
REMARK   39  A    between atoms: _102  and  _104
REMARK   40  A    between atoms: _104  and  _105
REMARK   41  A    between atoms: _104  and  _107
REMARK   42  A    between atoms: _107  and  _108
REMARK   43  A    between atoms: _113  and  _114
REMARK   44  A    between atoms: _116  and  _118
REMARK   45  A    between atoms: _118  and  _119
REMARK   46  A    between atoms: _118  and  _121
REMARK   47  A    between atoms: _121  and  _122
REMARK   48  A    between atoms: _125  and  _127
REMARK   49  A    between atoms: _127  and  _128
REMARK   50  A    between atoms: _127  and  _130
REMARK   51  A    between atoms: _130  and  _131
REMARK   52  A    between atoms: _141  and  _143
REMARK   53  A    between atoms: _143  and  _144
REMARK   54  A    between atoms: _143  and  _146
REMARK   55  A    between atoms: _146  and  _147
REMARK   56  A    between atoms: _147  and  _148
REMARK   57  A    between atoms: _153  and  _155
REMARK   58  A    between atoms: _155  and  _156
REMARK   59  A    between atoms: _159  and  _161
REMARK   60  A    between atoms: _161  and  _162
REMARK   61  A    between atoms: _161  and  _164
REMARK   62  A    between atoms: _164  and  _165
REMARK   63  A    between atoms: _170  and  _171
REMARK   64  A    between atoms: _173  and  _175
REMARK   65  A    between atoms: _175  and  _176
REMARK   66  A    between atoms: _175  and  _178
REMARK   67  A    between atoms: _178  and  _179
REMARK   68  A    between atoms: _184  and  _186
REMARK   69  A    between atoms: _186  and  _187
REMARK   70  A    between atoms: _186  and  _189
REMARK   71  A    between atoms: _189  and  _190
REMARK   72  A    between atoms: _193  and  _195
REMARK   73  A    between atoms: _195  and  _196
REMARK   74  A    between atoms: _195  and  _198
REMARK   75  A    between atoms: _198  and  _199
REMARK   76  A    between atoms: _204  and  _205
REMARK   77  A    between atoms: _208  and  _209
REMARK   78  A    between atoms: _214  and  _216
REMARK   79  A    between atoms: _216  and  _217
REMARK   80  A    between atoms: _216  and  _219
REMARK   81  A    between atoms: _219  and  _220
REMARK   82  A    between atoms: _230  and  _232
REMARK   83  A    between atoms: _232  and  _233
REMARK   84  A    between atoms: _232  and  _235
REMARK   85  A    between atoms: _235  and  _236
REMARK   86  A    between atoms: _236  and  _237
REMARK   87  A    between atoms: _237  and  _238
REMARK   88  A    between atoms: _247  and  _249
REMARK   89  A    between atoms: _249  and  _250
REMARK   90  A    between atoms: _249  and  _252
REMARK   91  A    between atoms: _252  and  _253
REMARK   92  A    between atoms: _258  and  _260
REMARK   93  A    between atoms: _260  and  _261
REMARK   94  A    between atoms: _260  and  _263
REMARK   95  A    between atoms: _263  and  _264
REMARK   96  A    between atoms: _267  and  _269
REMARK   97  A    between atoms: _269  and  _270
REMARK   98  A    between atoms: _269  and  _272
REMARK   99  A    between atoms: _272  and  _273
REMARK  100  A    between atoms: _283  and  _285
REMARK  101  A    between atoms: _285  and  _286
REMARK  102  A    between atoms: _285  and  _288
REMARK  103  A    between atoms: _288  and  _289
REMARK  104  A    between atoms: _289  and  _290
REMARK  105  A    between atoms: _290  and  _291
REMARK  106  A    between atoms: _300  and  _302
REMARK  107  A    between atoms: _302  and  _303
REMARK  108  A    between atoms: _302  and  _305
REMARK  109  A    between atoms: _305  and  _306
REMARK  110  A    between atoms: _310  and  FE_383
REMARK  111  A    between atoms: _311  and  _313
REMARK  112  A    between atoms: _313  and  _314
REMARK  113  A    between atoms: _313  and  _316
REMARK  114  A    between atoms: _316  and  _317
REMARK  115  A    between atoms: _321  and  FE_383
REMARK  116  A    between atoms: _322  and  _324
REMARK  117  A    between atoms: _324  and  _325
REMARK  118  A    between atoms: _324  and  _327
REMARK  119  A    between atoms: _328  and  _329
REMARK  120  A    between atoms: _334  and  _336
REMARK  121  A    between atoms: _336  and  _337
REMARK  122  A    between atoms: _336  and  _339
REMARK  123  A    between atoms: _339  and  _340
REMARK  124  A    between atoms: _345  and  _346
REMARK  125  A    between atoms: _348  and  _350
REMARK  126  A    between atoms: _350  and  _351
REMARK  127  A    between atoms: _350  and  _353
REMARK  128  A    between atoms: _355  and  _357
REMARK  129  A    between atoms: _357  and  _358
REMARK  130  A    between atoms: _357  and  _360
REMARK  131  A    between atoms: _360  and  _361
REMARK  132  A    between atoms: _364  and  _366
REMARK  133  A    between atoms: _366  and  _367
REMARK  134  A    between atoms: _366  and  _369
REMARK  135  A    between atoms: _369  and  _370
REMARK  136  A    between atoms: _370  and  _371
REMARK  137  A    between atoms: _374  and  _376
REMARK  138  A    between atoms: _376  and  _377
REMARK  139  A    between atoms: _376  and  _379
REMARK  140  A    between atoms: _379  and  _380
REMARK  141  A    between atoms: _380  and  _381
REMARK                            x       y       z     vdW  Elec       q    Type
REMARK                         _______ _______ _______ _____ _____    ______ ____
ROOT
ATOM      1  CA  THR A   1      19.277  19.040  37.595  0.00  0.00    +0.160 C 
ENDROOT
BRANCH   1   2
ATOM      2  N   THR A   1      18.053  19.224  36.832  0.00  0.00    -0.237 NA
ATOM      3  H   THR A   1      17.277  18.549  36.988  0.00  0.00    +0.142 HD
ENDBRANCH   1   2
BRANCH   1   4
ATOM      4  CB  THR A   1      19.076  17.956  38.759  0.00  0.00    +0.134 C 
ATOM      5  CG2 THR A   1      20.296  17.860  39.684  0.00  0.00    +0.034 C 
BRANCH   4   6
ATOM      6  OG1 THR A   1      18.023  18.592  39.595  0.00  0.00    -0.383 OA
ATOM      7  HG1 THR A   1      17.811  18.002  40.361  0.00  0.00    +0.210 HD
ENDBRANCH   4   6
ENDBRANCH   1   4
BRANCH   1   8
ATOM      8  C   THR A   1      20.480  18.721  36.722  0.00  0.00    +0.227 C 
ATOM      9  O   THR A   1      21.596  18.962  37.196  0.00  0.00    -0.287 OA
ENDBRANCH   1   8
TORSDOF 4
REMARK  Name = ../refined-set-2016/3pce/3pce_pocket.pdb
REMARK  141 active torsions:
REMARK  status: ('A' for Active; 'I' for Inactive)
REMARK    1  A    between atoms: _1  and  _3
REMARK    2  A    between atoms: _3  and  _4
REMARK    3  A    between atoms: _3  and  _6
REMARK    4  A    between atoms: _6  and  _7
REMARK    5  A    between atoms: _7  and  _8
REMARK    6  A    between atoms: _13  and  _15
REMARK    7  A    between atoms: _15  and  _16
REMARK    8  A    between atoms: _15  and  _18
REMARK    9  A    between atoms: _18  and  _19
REMARK   10  A    between atoms: _22  and  _24
REMARK   11  A    between atoms: _24  and  _25
REMARK   12  A    between atoms: _28  and  _30
REMARK   13  A    between atoms: _30  and  _31
REMARK   14  A    between atoms: _34  and  _35
REMARK   15  A    between atoms: _40  and  _42
REMARK   16  A    between atoms: _42  and  _43
REMARK   17  A    between atoms: _42  and  _45
REMARK   18  A    between atoms: _45  and  _46
REMARK   19  A    between atoms: _51  and  _52
REMARK   20  A    between atoms: _54  and  _56
REMARK   21  A    between atoms: _56  and  _57
REMARK   22  A    between atoms: _56  and  _59
REMARK   23  A    between atoms: _62  and  _64
REMARK   24  A    between atoms: _64  and  _65
REMARK   25  A    between atoms: _64  and  _67
REMARK   26  A    between atoms: _67  and  _68
REMARK   27  A    between atoms: _71  and  _73
REMARK   28  A    between atoms: _73  and  _74
REMARK   29  A    between atoms: _73  and  _76
REMARK   30  A    between atoms: _76  and  _77
REMARK   31  A    between atoms: _80  and  _82
REMARK   32  A    between atoms: _82  and  _83
REMARK   33  A    between atoms: _82  and  _85
REMARK   34  A    between atoms: _85  and  _86
REMARK   35  A    between atoms: _86  and  _87
REMARK   36  A    between atoms: _87  and  _88
REMARK   37  A    between atoms: _97  and  _99
REMARK   38  A    between atoms: _99  and  _100
REMARK   39  A    between atoms: _102  and  _104
REMARK   40  A    between atoms: _104  and  _105
REMARK   41  A    between atoms: _104  and  _107
REMARK   42  A    between atoms: _107  and  _108
REMARK   43  A    between atoms: _113  and  _114
REMARK   44  A    between atoms: _116  and  _118
REMARK   45  A    between atoms: _118  and  _119
REMARK   46  A    between atoms: _118  and  _121
REMARK   47  A    between atoms: _121  and  _122
REMARK   48  A    between atoms: _125  and  _127
REMARK   49  A    between atoms: _127  and  _128
REMARK   50  A    between atoms: _127  and  _130
REMARK   51  A    between atoms: _130  and  _131
REMARK   52  A    between atoms: _141  and  _143
REMARK   53  A    between atoms: _143  and  _144
REMARK   54  A    between atoms: _143  and  _146
REMARK   55  A    between atoms: _146  and  _147
REMARK   56  A    between atoms: _147  and  _148
REMARK   57  A    between atoms: _153  and  _155
REMARK   58  A    between atoms: _155  and  _156
REMARK   59  A    between atoms: _159  and  _161
REMARK   60  A    between atoms: _161  and  _162
REMARK   61  A    between atoms: _161  and  _164
REMARK   62  A    between atoms: _164  and  _165
REMARK   63  A    between atoms: _170  and  _171
REMARK   64  A    between atoms: _173  and  _175
REMARK   65  A    between atoms: _175  and  _176
REMARK   66  A    between atoms: _175  and  _178
REMARK   67  A    between atoms: _178  and  _179
REMARK   68  A    between atoms: _184  and  _186
REMARK   69  A    between atoms: _186  and  _187
REMARK   70  A    between atoms: _186  and  _189
REMARK   71  A    between atoms: _189  and  _190
REMARK   72  A    between atoms: _193  and  _195
REMARK   73  A    between atoms: _195  and  _196
REMARK   74  A    between atoms: _195  and  _198
REMARK   75  A    between atoms: _198  and  _199
REMARK   76  A    between atoms: _204  and  _205
REMARK   77  A    between atoms: _208  and  _209
REMARK   78  A    between atoms: _214  and  _216
REMARK   79  A    between atoms: _216  and  _217
REMARK   80  A    between atoms: _216  and  _219
REMARK   81  A    between atoms: _219  and  _220
REMARK   82  A    between atoms: _230  and  _232
REMARK   83  A    between atoms: _232  and  _233
REMARK   84  A    between atoms: _232  and  _235
REMARK   85  A    between atoms: _235  and  _236
REMARK   86  A    between atoms: _236  and  _237
REMARK   87  A    between atoms: _237  and  _238
REMARK   88  A    between atoms: _247  and  _249
REMARK   89  A    between atoms: _249  and  _250
REMARK   90  A    between atoms: _249  and  _252
REMARK   91  A    between atoms: _252  and  _253
REMARK   92  A    between atoms: _258  and  _260
REMARK   93  A    between atoms: _260  and  _261
REMARK   94  A    between atoms: _260  and  _263
REMARK   95  A    between atoms: _263  and  _264
REMARK   96  A    between atoms: _267  and  _269
REMARK   97  A    between atoms: _269  and  _270
REMARK   98  A    between atoms: _269  and  _272
REMARK   99  A    between atoms: _272  and  _273
REMARK  100  A    between atoms: _283  and  _285
REMARK  101  A    between atoms: _285  and  _286
REMARK  102  A    between atoms: _285  and  _288
REMARK  103  A    between atoms: _288  and  _289
REMARK  104  A    between atoms: _289  and  _290
REMARK  105  A    between atoms: _290  and  _291
REMARK  106  A    between atoms: _300  and  _302
REMARK  107  A    between atoms: _302  and  _303
REMARK  108  A    between atoms: _302  and  _305
REMARK  109  A    between atoms: _305  and  _306
REMARK  110  A    between atoms: _310  and  FE_383
REMARK  111  A    between atoms: _311  and  _313
REMARK  112  A    between atoms: _313  and  _314
REMARK  113  A    between atoms: _313  and  _316
REMARK  114  A    between atoms: _316  and  _317
REMARK  115  A    between atoms: _321  and  FE_383
REMARK  116  A    between atoms: _322  and  _324
REMARK  117  A    between atoms: _324  and  _325
REMARK  118  A    between atoms: _324  and  _327
REMARK  119  A    between atoms: _328  and  _329
REMARK  120  A    between atoms: _334  and  _336
REMARK  121  A    between atoms: _336  and  _337
REMARK  122  A    between atoms: _336  and  _339
REMARK  123  A    between atoms: _339  and  _340
REMARK  124  A    between atoms: _345  and  _346
REMARK  125  A    between atoms: _348  and  _350
REMARK  126  A    between atoms: _350  and  _351
REMARK  127  A    between atoms: _350  and  _353
REMARK  128  A    between atoms: _355  and  _357
REMARK  129  A    between atoms: _357  and  _358
REMARK  130  A    between atoms: _357  and  _360
REMARK  131  A    between atoms: _360  and  _361
REMARK  132  A    between atoms: _364  and  _366
REMARK  133  A    between atoms: _366  and  _367
REMARK  134  A    between atoms: _366  and  _369
REMARK  135  A    between atoms: _369  and  _370
REMARK  136  A    between atoms: _370  and  _371
REMARK  137  A    between atoms: _374  and  _376
REMARK  138  A    between atoms: _376  and  _377
REMARK  139  A    between atoms: _376  and  _379
REMARK  140  A    between atoms: _379  and  _380
REMARK  141  A    between atoms: _380  and  _381
REMARK                            x       y       z     vdW  Elec       q    Type
REMARK                         _______ _______ _______ _____ _____    ______ ____
ROOT
ATOM      1  C   TRP A   1      14.917   0.720  45.223  0.00  0.00    +0.239 C 
ATOM      2  N   GLN A   2      13.938   1.014  46.028  0.00  0.00    -0.297 N 
ATOM      3  H   GLN A   2      14.029   0.865  47.053  0.00  0.00    +0.150 HD
ATOM      4  O   TRP A   1      14.880   0.877  43.972  0.00  0.00    -0.274 OA
ENDROOT
BRANCH   1   5
ATOM      5  CA  TRP A   1      16.155   0.112  45.906  0.00  0.00    +0.149 C 
BRANCH   5   6
ATOM      6  N   TRP A   1      16.841  -0.732  44.943  0.00  0.00    -0.238 NA
ATOM      7  H   TRP A   1      16.770  -0.452  43.944  0.00  0.00    +0.142 HD
ENDBRANCH   5   6
BRANCH   5   8
ATOM      8  CB  TRP A   1      17.027   1.068  46.690  0.00  0.00    +0.054 C 
BRANCH   8   9
ATOM      9  CG  TRP A   1      17.543   2.213  45.890  0.00  0.00    -0.002 A 
ATOM     10  CD1 TRP A   1      17.073   3.487  45.798  0.00  0.00    +0.068 A 
ATOM     11  NE1 TRP A   1      17.853   4.225  44.935  0.00  0.00    -0.352 N 
ATOM     12  HE1 TRP A   1      17.707   5.228  44.700  0.00  0.00    +0.166 HD
ATOM     13  CE2 TRP A   1      18.848   3.434  44.436  0.00  0.00    +0.056 A 
ATOM     14  CZ2 TRP A   1      19.840   3.721  43.540  0.00  0.00    +0.017 A 
ATOM     15  CH2 TRP A   1      20.708   2.691  43.173  0.00  0.00    +0.001 A 
ATOM     16  CZ3 TRP A   1      20.529   1.414  43.679  0.00  0.00    +0.000 A 
ATOM     17  CE3 TRP A   1      19.535   1.125  44.628  0.00  0.00    +0.001 A 
ATOM     18  CD2 TRP A   1      18.702   2.138  45.004  0.00  0.00    +0.013 A 
ENDBRANCH   8   9
ENDBRANCH   5   8
ENDBRANCH   1   5
BRANCH   2  19
ATOM     19  CA  GLN A   2      12.648   1.585  45.429  0.00  0.00    +0.149 C 
BRANCH  19  20
ATOM     20  C   GLN A   2      11.809   2.148  46.579  0.00  0.00    +0.241 C 
ATOM     21  O   GLN A   2      12.176   1.991  47.745  0.00  0.00    -0.273 OA
ATOM     22  N   ALA A   3      10.745   2.842  46.212  0.00  0.00    -0.298 N 
ATOM     23  H   ALA A   3      10.583   2.988  45.195  0.00  0.00    +0.150 HD
BRANCH  22  24
ATOM     24  CA  ALA A   3       9.780   3.418  47.155  0.00  0.00    +0.137 C 
ATOM     25  CB  ALA A   3       9.013   4.542  46.444  0.00  0.00    +0.030 C 
BRANCH  24  26
ATOM     26  C   ALA A   3       8.769   2.310  47.522  0.00  0.00    +0.227 C 
ATOM     27  O   ALA A   3       8.772   1.149  46.975  0.00  0.00    -0.286 OA
ENDBRANCH  24  26
ENDBRANCH  22  24
ENDBRANCH  19  20
BRANCH  19  28
ATOM     28  CB  GLN A   2      11.879   0.391  44.788  0.00  0.00    +0.039 C 
BRANCH  28  29
ATOM     29  CG  GLN A   2      11.601  -0.710  45.814  0.00  0.00    +0.087 C 
BRANCH  29  30
ATOM     30  CD  GLN A   2      10.537  -1.724  45.528  0.00  0.00    +0.219 C 
ATOM     31  NE2 GLN A   2       9.240  -1.417  45.713  0.00  0.00    -0.329 N 
ATOM     32 HE21 GLN A   2       8.972  -0.467  46.040  0.00  0.00    +0.145 HD
ATOM     33 HE22 GLN A   2       8.506  -2.130  45.529  0.00  0.00    +0.145 HD
ATOM     34  OE1 GLN A   2      10.832  -2.868  45.136  0.00  0.00    -0.275 OA
ENDBRANCH  29  30
ENDBRANCH  28  29
ENDBRANCH  19  28
ENDBRANCH   2  19
TORSDOF 11
REMARK  Name = ../refined-set-2016/3pce/3pce_pocket.pdb
REMARK  141 active torsions:
REMARK  status: ('A' for Active; 'I' for Inactive)
REMARK    1  A    between atoms: _1  and  _3
REMARK    2  A    between atoms: _3  and  _4
REMARK    3  A    between atoms: _3  and  _6
REMARK    4  A    between atoms: _6  and  _7
REMARK    5  A    between atoms: _7  and  _8
REMARK    6  A    between atoms: _13  and  _15
REMARK    7  A    between atoms: _15  and  _16
REMARK    8  A    between atoms: _15  and  _18
REMARK    9  A    between atoms: _18  and  _19
REMARK   10  A    between atoms: _22  and  _24
REMARK   11  A    between atoms: _24  and  _25
REMARK   12  A    between atoms: _28  and  _30
REMARK   13  A    between atoms: _30  and  _31
REMARK   14  A    between atoms: _34  and  _35
REMARK   15  A    between atoms: _40  and  _42
REMARK   16  A    between atoms: _42  and  _43
REMARK   17  A    between atoms: _42  and  _45
REMARK   18  A    between atoms: _45  and  _46
REMARK   19  A    between atoms: _51  and  _52
REMARK   20  A    between atoms: _54  and  _56
REMARK   21  A    between atoms: _56  and  _57
REMARK   22  A    between atoms: _56  and  _59
REMARK   23  A    between atoms: _62  and  _64
REMARK   24  A    between atoms: _64  and  _65
REMARK   25  A    between atoms: _64  and  _67
REMARK   26  A    between atoms: _67  and  _68
REMARK   27  A    between atoms: _71  and  _73
REMARK   28  A    between atoms: _73  and  _74
REMARK   29  A    between atoms: _73  and  _76
REMARK   30  A    between atoms: _76  and  _77
REMARK   31  A    between atoms: _80  and  _82
REMARK   32  A    between atoms: _82  and  _83
REMARK   33  A    between atoms: _82  and  _85
REMARK   34  A    between atoms: _85  and  _86
REMARK   35  A    between atoms: _86  and  _87
REMARK   36  A    between atoms: _87  and  _88
REMARK   37  A    between atoms: _97  and  _99
REMARK   38  A    between atoms: _99  and  _100
REMARK   39  A    between atoms: _102  and  _104
REMARK   40  A    between atoms: _104  and  _105
REMARK   41  A    between atoms: _104  and  _107
REMARK   42  A    between atoms: _107  and  _108
REMARK   43  A    between atoms: _113  and  _114
REMARK   44  A    between atoms: _116  and  _118
REMARK   45  A    between atoms: _118  and  _119
REMARK   46  A    between atoms: _118  and  _121
REMARK   47  A    between atoms: _121  and  _122
REMARK   48  A    between atoms: _125  and  _127
REMARK   49  A    between atoms: _127  and  _128
REMARK   50  A    between atoms: _127  and  _130
REMARK   51  A    between atoms: _130  and  _131
REMARK   52  A    between atoms: _141  and  _143
REMARK   53  A    between atoms: _143  and  _144
REMARK   54  A    between atoms: _143  and  _146
REMARK   55  A    between atoms: _146  and  _147
REMARK   56  A    between atoms: _147  and  _148
REMARK   57  A    between atoms: _153  and  _155
REMARK   58  A    between atoms: _155  and  _156
REMARK   59  A    between atoms: _159  and  _161
REMARK   60  A    between atoms: _161  and  _162
REMARK   61  A    between atoms: _161  and  _164
REMARK   62  A    between atoms: _164  and  _165
REMARK   63  A    between atoms: _170  and  _171
REMARK   64  A    between atoms: _173  and  _175
REMARK   65  A    between atoms: _175  and  _176
REMARK   66  A    between atoms: _175  and  _178
REMARK   67  A    between atoms: _178  and  _179
REMARK   68  A    between atoms: _184  and  _186
REMARK   69  A    between atoms: _186  and  _187
REMARK   70  A    between atoms: _186  and  _189
REMARK   71  A    between atoms: _189  and  _190
REMARK   72  A    between atoms: _193  and  _195
REMARK   73  A    between atoms: _195  and  _196
REMARK   74  A    between atoms: _195  and  _198
REMARK   75  A    between atoms: _198  and  _199
REMARK   76  A    between atoms: _204  and  _205
REMARK   77  A    between atoms: _208  and  _209
REMARK   78  A    between atoms: _214  and  _216
REMARK   79  A    between atoms: _216  and  _217
REMARK   80  A    between atoms: _216  and  _219
REMARK   81  A    between atoms: _219  and  _220
REMARK   82  A    between atoms: _230  and  _232
REMARK   83  A    between atoms: _232  and  _233
REMARK   84  A    between atoms: _232  and  _235
REMARK   85  A    between atoms: _235  and  _236
REMARK   86  A    between atoms: _236  and  _237
REMARK   87  A    between atoms: _237  and  _238
REMARK   88  A    between atoms: _247  and  _249
REMARK   89  A    between atoms: _249  and  _250
REMARK   90  A    between atoms: _249  and  _252
REMARK   91  A    between atoms: _252  and  _253
REMARK   92  A    between atoms: _258  and  _260
REMARK   93  A    between atoms: _260  and  _261
REMARK   94  A    between atoms: _260  and  _263
REMARK   95  A    between atoms: _263  and  _264
REMARK   96  A    between atoms: _267  and  _269
REMARK   97  A    between atoms: _269  and  _270
REMARK   98  A    between atoms: _269  and  _272
REMARK   99  A    between atoms: _272  and  _273
REMARK  100  A    between atoms: _283  and  _285
REMARK  101  A    between atoms: _285  and  _286
REMARK  102  A    between atoms: _285  and  _288
REMARK  103  A    between atoms: _288  and  _289
REMARK  104  A    between atoms: _289  and  _290
REMARK  105  A    between atoms: _290  and  _291
REMARK  106  A    between atoms: _300  and  _302
REMARK  107  A    between atoms: _302  and  _303
REMARK  108  A    between atoms: _302  and  _305
REMARK  109  A    between atoms: _305  and  _306
REMARK  110  A    between atoms: _310  and  FE_383
REMARK  111  A    between atoms: _311  and  _313
REMARK  112  A    between atoms: _313  and  _314
REMARK  113  A    between atoms: _313  and  _316
REMARK  114  A    between atoms: _316  and  _317
REMARK  115  A    between atoms: _321  and  FE_383
REMARK  116  A    between atoms: _322  and  _324
REMARK  117  A    between atoms: _324  and  _325
REMARK  118  A    between atoms: _324  and  _327
REMARK  119  A    between atoms: _328  and  _329
REMARK  120  A    between atoms: _334  and  _336
REMARK  121  A    between atoms: _336  and  _337
REMARK  122  A    between atoms: _336  and  _339
REMARK  123  A    between atoms: _339  and  _340
REMARK  124  A    between atoms: _345  and  _346
REMARK  125  A    between atoms: _348  and  _350
REMARK  126  A    between atoms: _350  and  _351
REMARK  127  A    between atoms: _350  and  _353
REMARK  128  A    between atoms: _355  and  _357
REMARK  129  A    between atoms: _357  and  _358
REMARK  130  A    between atoms: _357  and  _360
REMARK  131  A    between atoms: _360  and  _361
REMARK  132  A    between atoms: _364  and  _366
REMARK  133  A    between atoms: _366  and  _367
REMARK  134  A    between atoms: _366  and  _369
REMARK  135  A    between atoms: _369  and  _370
REMARK  136  A    between atoms: _370  and  _371
REMARK  137  A    between atoms: _374  and  _376
REMARK  138  A    between atoms: _376  and  _377
REMARK  139  A    between atoms: _376  and  _379
REMARK  140  A    between atoms: _379  and  _380
REMARK  141  A    between atoms: _380  and  _381
REMARK                            x       y       z     vdW  Elec       q    Type
REMARK                         _______ _______ _______ _____ _____    ______ ____
ROOT
ATOM      1  CG  TYR A   1      12.216   6.708  47.783  0.00  0.00    -0.020 A 
ATOM      2  CD2 TYR A   1      12.973   5.594  47.396  0.00  0.00    -0.001 A 
ATOM      3  CE2 TYR A   1      13.132   5.229  46.058  0.00  0.00    +0.036 A 
ATOM      4  CZ  TYR A   1      12.585   6.065  45.069  0.00  0.00    +0.134 A 
ATOM      5  CE1 TYR A   1      11.866   7.181  45.423  0.00  0.00    +0.036 A 
ATOM      6  CD1 TYR A   1      11.671   7.498  46.762  0.00  0.00    -0.001 A 
ENDROOT
BRANCH   4   7
ATOM      7  OH  TYR A   1      12.742   5.734  43.758  0.00  0.00    -0.506 OA
ATOM      8  HH  TYR A   1      11.854   5.582  43.348  0.00  0.00    +0.292 HD
ENDBRANCH   4   7
BRANCH   1   9
ATOM      9  CB  TYR A   1      12.084   7.082  49.220  0.00  0.00    +0.051 C 
BRANCH   9  10
ATOM     10  CA  TYR A   1      10.986   6.438  50.057  0.00  0.00    +0.137 C 
BRANCH  10  11
ATOM     11  N   TYR A   1       9.654   7.040  49.840  0.00  0.00    -0.239 NA
ATOM     12  H   TYR A   1       9.578   8.076  49.792  0.00  0.00    +0.142 HD
ENDBRANCH  10  11
BRANCH  10  13
ATOM     13  C   TYR A   1      11.348   6.559  51.551  0.00  0.00    +0.224 C 
ATOM     14  O   TYR A   1      10.978   7.534  52.225  0.00  0.00    -0.287 OA
ENDBRANCH  10  13
ENDBRANCH   9  10
ENDBRANCH   1   9
TORSDOF 5
REMARK  Name = ../refined-set-2016/3pce/3pce_pocket.pdb
REMARK  141 active torsions:
REMARK  status: ('A' for Active; 'I' for Inactive)
REMARK    1  A    between atoms: _1  and  _3
REMARK    2  A    between atoms: _3  and  _4
REMARK    3  A    between atoms: _3  and  _6
REMARK    4  A    between atoms: _6  and  _7
REMARK    5  A    between atoms: _7  and  _8
REMARK    6  A    between atoms: _13  and  _15
REMARK    7  A    between atoms: _15  and  _16
REMARK    8  A    between atoms: _15  and  _18
REMARK    9  A    between atoms: _18  and  _19
REMARK   10  A    between atoms: _22  and  _24
REMARK   11  A    between atoms: _24  and  _25
REMARK   12  A    between atoms: _28  and  _30
REMARK   13  A    between atoms: _30  and  _31
REMARK   14  A    between atoms: _34  and  _35
REMARK   15  A    between atoms: _40  and  _42
REMARK   16  A    between atoms: _42  and  _43
REMARK   17  A    between atoms: _42  and  _45
REMARK   18  A    between atoms: _45  and  _46
REMARK   19  A    between atoms: _51  and  _52
REMARK   20  A    between atoms: _54  and  _56
REMARK   21  A    between atoms: _56  and  _57
REMARK   22  A    between atoms: _56  and  _59
REMARK   23  A    between atoms: _62  and  _64
REMARK   24  A    between atoms: _64  and  _65
REMARK   25  A    between atoms: _64  and  _67
REMARK   26  A    between atoms: _67  and  _68
REMARK   27  A    between atoms: _71  and  _73
REMARK   28  A    between atoms: _73  and  _74
REMARK   29  A    between atoms: _73  and  _76
REMARK   30  A    between atoms: _76  and  _77
REMARK   31  A    between atoms: _80  and  _82
REMARK   32  A    between atoms: _82  and  _83
REMARK   33  A    between atoms: _82  and  _85
REMARK   34  A    between atoms: _85  and  _86
REMARK   35  A    between atoms: _86  and  _87
REMARK   36  A    between atoms: _87  and  _88
REMARK   37  A    between atoms: _97  and  _99
REMARK   38  A    between atoms: _99  and  _100
REMARK   39  A    between atoms: _102  and  _104
REMARK   40  A    between atoms: _104  and  _105
REMARK   41  A    between atoms: _104  and  _107
REMARK   42  A    between atoms: _107  and  _108
REMARK   43  A    between atoms: _113  and  _114
REMARK   44  A    between atoms: _116  and  _118
REMARK   45  A    between atoms: _118  and  _119
REMARK   46  A    between atoms: _118  and  _121
REMARK   47  A    between atoms: _121  and  _122
REMARK   48  A    between atoms: _125  and  _127
REMARK   49  A    between atoms: _127  and  _128
REMARK   50  A    between atoms: _127  and  _130
REMARK   51  A    between atoms: _130  and  _131
REMARK   52  A    between atoms: _141  and  _143
REMARK   53  A    between atoms: _143  and  _144
REMARK   54  A    between atoms: _143  and  _146
REMARK   55  A    between atoms: _146  and  _147
REMARK   56  A    between atoms: _147  and  _148
REMARK   57  A    between atoms: _153  and  _155
REMARK   58  A    between atoms: _155  and  _156
REMARK   59  A    between atoms: _159  and  _161
REMARK   60  A    between atoms: _161  and  _162
REMARK   61  A    between atoms: _161  and  _164
REMARK   62  A    between atoms: _164  and  _165
REMARK   63  A    between atoms: _170  and  _171
REMARK   64  A    between atoms: _173  and  _175
REMARK   65  A    between atoms: _175  and  _176
REMARK   66  A    between atoms: _175  and  _178
REMARK   67  A    between atoms: _178  and  _179
REMARK   68  A    between atoms: _184  and  _186
REMARK   69  A    between atoms: _186  and  _187
REMARK   70  A    between atoms: _186  and  _189
REMARK   71  A    between atoms: _189  and  _190
REMARK   72  A    between atoms: _193  and  _195
REMARK   73  A    between atoms: _195  and  _196
REMARK   74  A    between atoms: _195  and  _198
REMARK   75  A    between atoms: _198  and  _199
REMARK   76  A    between atoms: _204  and  _205
REMARK   77  A    between atoms: _208  and  _209
REMARK   78  A    between atoms: _214  and  _216
REMARK   79  A    between atoms: _216  and  _217
REMARK   80  A    between atoms: _216  and  _219
REMARK   81  A    between atoms: _219  and  _220
REMARK   82  A    between atoms: _230  and  _232
REMARK   83  A    between atoms: _232  and  _233
REMARK   84  A    between atoms: _232  and  _235
REMARK   85  A    between atoms: _235  and  _236
REMARK   86  A    between atoms: _236  and  _237
REMARK   87  A    between atoms: _237  and  _238
REMARK   88  A    between atoms: _247  and  _249
REMARK   89  A    between atoms: _249  and  _250
REMARK   90  A    between atoms: _249  and  _252
REMARK   91  A    between atoms: _252  and  _253
REMARK   92  A    between atoms: _258  and  _260
REMARK   93  A    between atoms: _260  and  _261
REMARK   94  A    between atoms: _260  and  _263
REMARK   95  A    between atoms: _263  and  _264
REMARK   96  A    between atoms: _267  and  _269
REMARK   97  A    between atoms: _269  and  _270
REMARK   98  A    between atoms: _269  and  _272
REMARK   99  A    between atoms: _272  and  _273
REMARK  100  A    between atoms: _283  and  _285
REMARK  101  A    between atoms: _285  and  _286
REMARK  102  A    between atoms: _285  and  _288
REMARK  103  A    between atoms: _288  and  _289
REMARK  104  A    between atoms: _289  and  _290
REMARK  105  A    between atoms: _290  and  _291
REMARK  106  A    between atoms: _300  and  _302
REMARK  107  A    between atoms: _302  and  _303
REMARK  108  A    between atoms: _302  and  _305
REMARK  109  A    between atoms: _305  and  _306
REMARK  110  A    between atoms: _310  and  FE_383
REMARK  111  A    between atoms: _311  and  _313
REMARK  112  A    between atoms: _313  and  _314
REMARK  113  A    between atoms: _313  and  _316
REMARK  114  A    between atoms: _316  and  _317
REMARK  115  A    between atoms: _321  and  FE_383
REMARK  116  A    between atoms: _322  and  _324
REMARK  117  A    between atoms: _324  and  _325
REMARK  118  A    between atoms: _324  and  _327
REMARK  119  A    between atoms: _328  and  _329
REMARK  120  A    between atoms: _334  and  _336
REMARK  121  A    between atoms: _336  and  _337
REMARK  122  A    between atoms: _336  and  _339
REMARK  123  A    between atoms: _339  and  _340
REMARK  124  A    between atoms: _345  and  _346
REMARK  125  A    between atoms: _348  and  _350
REMARK  126  A    between atoms: _350  and  _351
REMARK  127  A    between atoms: _350  and  _353
REMARK  128  A    between atoms: _355  and  _357
REMARK  129  A    between atoms: _357  and  _358
REMARK  130  A    between atoms: _357  and  _360
REMARK  131  A    between atoms: _360  and  _361
REMARK  132  A    between atoms: _364  and  _366
REMARK  133  A    between atoms: _366  and  _367
REMARK  134  A    between atoms: _366  and  _369
REMARK  135  A    between atoms: _369  and  _370
REMARK  136  A    between atoms: _370  and  _371
REMARK  137  A    between atoms: _374  and  _376
REMARK  138  A    between atoms: _376  and  _377
REMARK  139  A    between atoms: _376  and  _379
REMARK  140  A    between atoms: _379  and  _380
REMARK  141  A    between atoms: _380  and  _381
REMARK                            x       y       z     vdW  Elec       q    Type
REMARK                         _______ _______ _______ _____ _____    ______ ____
ROOT
ATOM      1  C   ASN A   1      13.651  13.575  51.830  0.00  0.00    +0.239 C 
ATOM      2  N   ASP A   2      12.952  12.481  52.053  0.00  0.00    -0.298 N 
ATOM      3  H   ASP A   2      13.302  11.757  52.713  0.00  0.00    +0.150 HD
ATOM      4  O   ASN A   1      13.255  14.498  51.059  0.00  0.00    -0.274 OA
ENDROOT
BRANCH   1   5
ATOM      5  CA  ASN A   1      14.982  13.763  52.515  0.00  0.00    +0.154 C 
BRANCH   5   6
ATOM      6  N   ASN A   1      15.340  12.700  53.452  0.00  0.00    -0.238 NA
ATOM      7  H   ASN A   1      16.082  12.019  53.193  0.00  0.00    +0.142 HD
ENDBRANCH   5   6
BRANCH   5   8
ATOM      8  CB  ASN A   1      16.157  13.994  51.541  0.00  0.00    +0.111 C 
BRANCH   8   9
ATOM      9  CG  ASN A   1      17.405  14.434  52.314  0.00  0.00    +0.221 C 
ATOM     10  ND2 ASN A   1      17.139  14.966  53.520  0.00  0.00    -0.329 N 
ATOM     11 HD21 ASN A   1      17.915  15.325  54.112  0.00  0.00    +0.145 HD
ATOM     12 HD22 ASN A   1      16.158  15.018  53.860  0.00  0.00    +0.145 HD
ATOM     13  OD1 ASN A   1      18.545  14.317  51.797  0.00  0.00    -0.275 OA
ENDBRANCH   8   9
ENDBRANCH   5   8
ENDBRANCH   1   5
BRANCH   2  14
ATOM     14  CA  ASP A   2      11.657  12.294  51.350  0.00  0.00    +0.148 C 
BRANCH  14  15
ATOM     15  C   ASP A   2      10.517  12.833  52.208  0.00  0.00    +0.227 C 
ATOM     16  O   ASP A   2      10.061  12.239  53.190  0.00  0.00    -0.286 OA
ENDBRANCH  14  15
BRANCH  14  17
ATOM     17  CB  ASP A   2      11.501  10.944  50.706  0.00  0.00    +0.142 C 
BRANCH  17  18
ATOM     18  CG  ASP A   2      10.238  10.772  49.901  0.00  0.00    +0.367 C 
ATOM     19  OD2 ASP A   2       9.985   9.592  49.564  0.00  0.00    -0.246 OA
ATOM     20  OD1 ASP A   2       9.492  11.722  49.560  0.00  0.00    -0.246 OA
ENDBRANCH  17  18
ENDBRANCH  14  17
ENDBRANCH   2  14
TORSDOF 8
REMARK  Name = ../refined-set-2016/3pce/3pce_pocket.pdb
REMARK  141 active torsions:
REMARK  status: ('A' for Active; 'I' for Inactive)
REMARK    1  A    between atoms: _1  and  _3
REMARK    2  A    between atoms: _3  and  _4
REMARK    3  A    between atoms: _3  and  _6
REMARK    4  A    between atoms: _6  and  _7
REMARK    5  A    between atoms: _7  and  _8
REMARK    6  A    between atoms: _13  and  _15
REMARK    7  A    between atoms: _15  and  _16
REMARK    8  A    between atoms: _15  and  _18
REMARK    9  A    between atoms: _18  and  _19
REMARK   10  A    between atoms: _22  and  _24
REMARK   11  A    between atoms: _24  and  _25
REMARK   12  A    between atoms: _28  and  _30
REMARK   13  A    between atoms: _30  and  _31
REMARK   14  A    between atoms: _34  and  _35
REMARK   15  A    between atoms: _40  and  _42
REMARK   16  A    between atoms: _42  and  _43
REMARK   17  A    between atoms: _42  and  _45
REMARK   18  A    between atoms: _45  and  _46
REMARK   19  A    between atoms: _51  and  _52
REMARK   20  A    between atoms: _54  and  _56
REMARK   21  A    between atoms: _56  and  _57
REMARK   22  A    between atoms: _56  and  _59
REMARK   23  A    between atoms: _62  and  _64
REMARK   24  A    between atoms: _64  and  _65
REMARK   25  A    between atoms: _64  and  _67
REMARK   26  A    between atoms: _67  and  _68
REMARK   27  A    between atoms: _71  and  _73
REMARK   28  A    between atoms: _73  and  _74
REMARK   29  A    between atoms: _73  and  _76
REMARK   30  A    between atoms: _76  and  _77
REMARK   31  A    between atoms: _80  and  _82
REMARK   32  A    between atoms: _82  and  _83
REMARK   33  A    between atoms: _82  and  _85
REMARK   34  A    between atoms: _85  and  _86
REMARK   35  A    between atoms: _86  and  _87
REMARK   36  A    between atoms: _87  and  _88
REMARK   37  A    between atoms: _97  and  _99
REMARK   38  A    between atoms: _99  and  _100
REMARK   39  A    between atoms: _102  and  _104
REMARK   40  A    between atoms: _104  and  _105
REMARK   41  A    between atoms: _104  and  _107
REMARK   42  A    between atoms: _107  and  _108
REMARK   43  A    between atoms: _113  and  _114
REMARK   44  A    between atoms: _116  and  _118
REMARK   45  A    between atoms: _118  and  _119
REMARK   46  A    between atoms: _118  and  _121
REMARK   47  A    between atoms: _121  and  _122
REMARK   48  A    between atoms: _125  and  _127
REMARK   49  A    between atoms: _127  and  _128
REMARK   50  A    between atoms: _127  and  _130
REMARK   51  A    between atoms: _130  and  _131
REMARK   52  A    between atoms: _141  and  _143
REMARK   53  A    between atoms: _143  and  _144
REMARK   54  A    between atoms: _143  and  _146
REMARK   55  A    between atoms: _146  and  _147
REMARK   56  A    between atoms: _147  and  _148
REMARK   57  A    between atoms: _153  and  _155
REMARK   58  A    between atoms: _155  and  _156
REMARK   59  A    between atoms: _159  and  _161
REMARK   60  A    between atoms: _161  and  _162
REMARK   61  A    between atoms: _161  and  _164
REMARK   62  A    between atoms: _164  and  _165
REMARK   63  A    between atoms: _170  and  _171
REMARK   64  A    between atoms: _173  and  _175
REMARK   65  A    between atoms: _175  and  _176
REMARK   66  A    between atoms: _175  and  _178
REMARK   67  A    between atoms: _178  and  _179
REMARK   68  A    between atoms: _184  and  _186
REMARK   69  A    between atoms: _186  and  _187
REMARK   70  A    between atoms: _186  and  _189
REMARK   71  A    between atoms: _189  and  _190
REMARK   72  A    between atoms: _193  and  _195
REMARK   73  A    between atoms: _195  and  _196
REMARK   74  A    between atoms: _195  and  _198
REMARK   75  A    between atoms: _198  and  _199
REMARK   76  A    between atoms: _204  and  _205
REMARK   77  A    between atoms: _208  and  _209
REMARK   78  A    between atoms: _214  and  _216
REMARK   79  A    between atoms: _216  and  _217
REMARK   80  A    between atoms: _216  and  _219
REMARK   81  A    between atoms: _219  and  _220
REMARK   82  A    between atoms: _230  and  _232
REMARK   83  A    between atoms: _232  and  _233
REMARK   84  A    between atoms: _232  and  _235
REMARK   85  A    between atoms: _235  and  _236
REMARK   86  A    between atoms: _236  and  _237
REMARK   87  A    between atoms: _237  and  _238
REMARK   88  A    between atoms: _247  and  _249
REMARK   89  A    between atoms: _249  and  _250
REMARK   90  A    between atoms: _249  and  _252
REMARK   91  A    between atoms: _252  and  _253
REMARK   92  A    between atoms: _258  and  _260
REMARK   93  A    between atoms: _260  and  _261
REMARK   94  A    between atoms: _260  and  _263
REMARK   95  A    between atoms: _263  and  _264
REMARK   96  A    between atoms: _267  and  _269
REMARK   97  A    between atoms: _269  and  _270
REMARK   98  A    between atoms: _269  and  _272
REMARK   99  A    between atoms: _272  and  _273
REMARK  100  A    between atoms: _283  and  _285
REMARK  101  A    between atoms: _285  and  _286
REMARK  102  A    between atoms: _285  and  _288
REMARK  103  A    between atoms: _288  and  _289
REMARK  104  A    between atoms: _289  and  _290
REMARK  105  A    between atoms: _290  and  _291
REMARK  106  A    between atoms: _300  and  _302
REMARK  107  A    between atoms: _302  and  _303
REMARK  108  A    between atoms: _302  and  _305
REMARK  109  A    between atoms: _305  and  _306
REMARK  110  A    between atoms: _310  and  FE_383
REMARK  111  A    between atoms: _311  and  _313
REMARK  112  A    between atoms: _313  and  _314
REMARK  113  A    between atoms: _313  and  _316
REMARK  114  A    between atoms: _316  and  _317
REMARK  115  A    between atoms: _321  and  FE_383
REMARK  116  A    between atoms: _322  and  _324
REMARK  117  A    between atoms: _324  and  _325
REMARK  118  A    between atoms: _324  and  _327
REMARK  119  A    between atoms: _328  and  _329
REMARK  120  A    between atoms: _334  and  _336
REMARK  121  A    between atoms: _336  and  _337
REMARK  122  A    between atoms: _336  and  _339
REMARK  123  A    between atoms: _339  and  _340
REMARK  124  A    between atoms: _345  and  _346
REMARK  125  A    between atoms: _348  and  _350
REMARK  126  A    between atoms: _350  and  _351
REMARK  127  A    between atoms: _350  and  _353
REMARK  128  A    between atoms: _355  and  _357
REMARK  129  A    between atoms: _357  and  _358
REMARK  130  A    between atoms: _357  and  _360
REMARK  131  A    between atoms: _360  and  _361
REMARK  132  A    between atoms: _364  and  _366
REMARK  133  A    between atoms: _366  and  _367
REMARK  134  A    between atoms: _366  and  _369
REMARK  135  A    between atoms: _369  and  _370
REMARK  136  A    between atoms: _370  and  _371
REMARK  137  A    between atoms: _374  and  _376
REMARK  138  A    between atoms: _376  and  _377
REMARK  139  A    between atoms: _376  and  _379
REMARK  140  A    between atoms: _379  and  _380
REMARK  141  A    between atoms: _380  and  _381
REMARK                            x       y       z     vdW  Elec       q    Type
REMARK                         _______ _______ _______ _____ _____    ______ ____
ROOT
ATOM      1  CA  TRP A   3       9.089  15.667  42.064  0.00  0.00    +0.153 C 
ENDROOT
BRANCH   1   4
ATOM      2  C   PRO A   2       7.200  14.180  42.509  0.00  0.00    +0.241 C 
ATOM      3  O   PRO A   2       7.810  13.629  43.460  0.00  0.00    -0.273 OA
ATOM      4  N   TRP A   3       7.711  15.157  41.785  0.00  0.00    -0.297 N 
ATOM      5  H   TRP A   3       7.152  15.576  41.015  0.00  0.00    +0.150 HD
BRANCH   2  11
ATOM      6  C   TYR A   1       6.075  11.288  42.059  0.00  0.00    +0.242 C 
ATOM      7  N   PRO A   2       5.582  12.358  42.664  0.00  0.00    -0.272 N 
ATOM      8  CD  PRO A   2       4.782  12.372  43.913  0.00  0.00    +0.094 C 
ATOM      9  CG  PRO A   2       4.502  13.840  44.158  0.00  0.00    +0.024 C 
ATOM     10  CB  PRO A   2       4.694  14.545  42.843  0.00  0.00    +0.031 C 
ATOM     11  CA  PRO A   2       5.791  13.723  42.132  0.00  0.00    +0.152 C 
ATOM     12  O   TYR A   1       6.746  11.308  41.027  0.00  0.00    -0.273 OA
BRANCH   6  13
ATOM     13  CA  TYR A   1       5.730   9.986  42.733  0.00  0.00    +0.149 C 
BRANCH  13  14
ATOM     14  N   TYR A   1       5.618   8.860  41.764  0.00  0.00    -0.238 NA
ATOM     15  H   TYR A   1       6.084   8.926  40.837  0.00  0.00    +0.142 HD
ENDBRANCH  13  14
BRANCH  13  16
ATOM     16  CB  TYR A   1       6.614   9.633  43.939  0.00  0.00    +0.053 C 
BRANCH  16  17
ATOM     17  CG  TYR A   1       8.033   9.343  43.519  0.00  0.00    -0.020 A 
ATOM     18  CD2 TYR A   1       8.449   8.026  43.385  0.00  0.00    -0.001 A 
ATOM     19  CE2 TYR A   1       9.762   7.731  42.962  0.00  0.00    +0.036 A 
ATOM     20  CZ  TYR A   1      10.639   8.787  42.720  0.00  0.00    +0.134 A 
ATOM     21  CE1 TYR A   1      10.237  10.112  42.853  0.00  0.00    +0.036 A 
ATOM     22  CD1 TYR A   1       8.923  10.385  43.258  0.00  0.00    -0.001 A 
BRANCH  20  23
ATOM     23  OH  TYR A   1      11.915   8.453  42.342  0.00  0.00    -0.506 OA
ATOM     24  HH  TYR A   1      12.337   7.909  43.054  0.00  0.00    +0.292 HD
ENDBRANCH  20  23
ENDBRANCH  16  17
ENDBRANCH  13  16
ENDBRANCH   6  13
ENDBRANCH   2  11
ENDBRANCH   1   4
BRANCH   1  25
ATOM     25  C   TRP A   3       9.151  17.056  41.438  0.00  0.00    +0.241 C 
ATOM     26  N   ARG A   4       9.933  17.875  42.093  0.00  0.00    -0.297 N 
ATOM     27  H   ARG A   4      10.456  17.527  42.922  0.00  0.00    +0.150 HD
ATOM     28  O   TRP A   3       8.488  17.300  40.405  0.00  0.00    -0.273 OA
BRANCH  26  29
ATOM     29  CA  ARG A   4      10.086  19.274  41.681  0.00  0.00    +0.149 C 
BRANCH  29  30
ATOM     30  C   ARG A   4      10.973  19.414  40.460  0.00  0.00    +0.241 C 
ATOM     31  O   ARG A   4      12.189  19.541  40.649  0.00  0.00    -0.273 OA
ATOM     32  N   ASN A   5      10.437  19.302  39.280  0.00  0.00    -0.298 N 
ATOM     33  H   ASN A   5       9.419  19.094  39.245  0.00  0.00    +0.150 HD
BRANCH  32  34
ATOM     34  CA  ASN A   5      11.135  19.442  37.982  0.00  0.00    +0.146 C 
BRANCH  34  35
ATOM     35  C   ASN A   5      10.214  20.499  37.294  0.00  0.00    +0.227 C 
ATOM     36  O   ASN A   5      10.317  21.684  37.670  0.00  0.00    -0.286 OA
ENDBRANCH  34  35
BRANCH  34  37
ATOM     37  CB  ASN A   5      11.342  18.117  37.294  0.00  0.00    +0.112 C 
BRANCH  37  38
ATOM     38  CG  ASN A   5      12.159  18.254  36.011  0.00  0.00    +0.222 C 
ATOM     39  OD1 ASN A   5      13.321  18.666  36.124  0.00  0.00    -0.275 OA
ATOM     40  ND2 ASN A   5      11.572  18.050  34.824  0.00  0.00    -0.329 N 
ATOM     41 HD21 ASN A   5      10.593  17.703  34.781  0.00  0.00    +0.145 HD
ATOM     42 HD22 ASN A   5      12.096  18.239  33.946  0.00  0.00    +0.145 HD
ENDBRANCH  37  38
ENDBRANCH  34  37
ENDBRANCH  32  34
ENDBRANCH  29  30
BRANCH  29  43
ATOM     43  CB  ARG A   4      10.560  20.112  42.898  0.00  0.00    +0.033 C 
BRANCH  43  44
ATOM     44  CG  ARG A   4       9.744  19.688  44.150  0.00  0.00    +0.045 C 
BRANCH  44  45
ATOM     45  CD  ARG A   4       9.734  20.722  45.230  0.00  0.00    +0.174 C 
BRANCH  45  46
ATOM     46  NE  ARG A   4       8.507  21.485  45.274  0.00  0.00    -0.265 N 
ATOM     47  CZ  ARG A   4       7.513  21.476  46.152  0.00  0.00    +0.342 C 
ATOM     48  NH2 ARG A   4       7.494  20.724  47.245  0.00  0.00    -0.292 N 
ATOM     49 HH21 ARG A   4       6.681  20.767  47.892  0.00  0.00    +0.255 HD
ATOM     50 HH22 ARG A   4       8.293  20.092  47.455  0.00  0.00    +0.255 HD
ATOM     51  NH1 ARG A   4       6.407  22.245  45.909  0.00  0.00    -0.292 N 
ATOM     52 HH11 ARG A   4       5.618  22.250  46.587  0.00  0.00    +0.255 HD
ATOM     53 HH12 ARG A   4       6.356  22.824  45.047  0.00  0.00    +0.255 HD
ATOM     54  HE  ARG A   4       8.383  22.152  44.486  0.00  0.00    +0.259 HD
ENDBRANCH  45  46
ENDBRANCH  44  45
ENDBRANCH  43  44
ENDBRANCH  29  43
ENDBRANCH  26  29
ENDBRANCH   1  25
BRANCH   1  55
ATOM     55  CB  TRP A   3      10.187  14.716  41.649  0.00  0.00    +0.057 C 
BRANCH  55  56
ATOM     56  CG  TRP A   3      10.229  14.459  40.180  0.00  0.00    -0.002 A 
ATOM     57  CD1 TRP A   3       9.216  13.934  39.398  0.00  0.00    +0.068 A 
ATOM     58  NE1 TRP A   3       9.618  13.886  38.087  0.00  0.00    -0.352 N 
ATOM     59  CE2 TRP A   3      10.909  14.363  37.989  0.00  0.00    +0.056 A 
ATOM     60  CZ2 TRP A   3      11.737  14.460  36.883  0.00  0.00    +0.017 A 
ATOM     61  CH2 TRP A   3      13.003  14.995  37.073  0.00  0.00    +0.001 A 
ATOM     62  CZ3 TRP A   3      13.422  15.386  38.357  0.00  0.00    +0.000 A 
ATOM     63  CE3 TRP A   3      12.580  15.285  39.464  0.00  0.00    +0.001 A 
ATOM     64  HE1 TRP A   3       9.041  13.544  37.292  0.00  0.00    +0.166 HD
ATOM     65  CD2 TRP A   3      11.326  14.740  39.285  0.00  0.00    +0.013 A 
ENDBRANCH  55  56
ENDBRANCH   1  55
TORSDOF 20
REMARK  Name = ../refined-set-2016/3pce/3pce_pocket.pdb
REMARK  141 active torsions:
REMARK  status: ('A' for Active; 'I' for Inactive)
REMARK    1  A    between atoms: _1  and  _3
REMARK    2  A    between atoms: _3  and  _4
REMARK    3  A    between atoms: _3  and  _6
REMARK    4  A    between atoms: _6  and  _7
REMARK    5  A    between atoms: _7  and  _8
REMARK    6  A    between atoms: _13  and  _15
REMARK    7  A    between atoms: _15  and  _16
REMARK    8  A    between atoms: _15  and  _18
REMARK    9  A    between atoms: _18  and  _19
REMARK   10  A    between atoms: _22  and  _24
REMARK   11  A    between atoms: _24  and  _25
REMARK   12  A    between atoms: _28  and  _30
REMARK   13  A    between atoms: _30  and  _31
REMARK   14  A    between atoms: _34  and  _35
REMARK   15  A    between atoms: _40  and  _42
REMARK   16  A    between atoms: _42  and  _43
REMARK   17  A    between atoms: _42  and  _45
REMARK   18  A    between atoms: _45  and  _46
REMARK   19  A    between atoms: _51  and  _52
REMARK   20  A    between atoms: _54  and  _56
REMARK   21  A    between atoms: _56  and  _57
REMARK   22  A    between atoms: _56  and  _59
REMARK   23  A    between atoms: _62  and  _64
REMARK   24  A    between atoms: _64  and  _65
REMARK   25  A    between atoms: _64  and  _67
REMARK   26  A    between atoms: _67  and  _68
REMARK   27  A    between atoms: _71  and  _73
REMARK   28  A    between atoms: _73  and  _74
REMARK   29  A    between atoms: _73  and  _76
REMARK   30  A    between atoms: _76  and  _77
REMARK   31  A    between atoms: _80  and  _82
REMARK   32  A    between atoms: _82  and  _83
REMARK   33  A    between atoms: _82  and  _85
REMARK   34  A    between atoms: _85  and  _86
REMARK   35  A    between atoms: _86  and  _87
REMARK   36  A    between atoms: _87  and  _88
REMARK   37  A    between atoms: _97  and  _99
REMARK   38  A    between atoms: _99  and  _100
REMARK   39  A    between atoms: _102  and  _104
REMARK   40  A    between atoms: _104  and  _105
REMARK   41  A    between atoms: _104  and  _107
REMARK   42  A    between atoms: _107  and  _108
REMARK   43  A    between atoms: _113  and  _114
REMARK   44  A    between atoms: _116  and  _118
REMARK   45  A    between atoms: _118  and  _119
REMARK   46  A    between atoms: _118  and  _121
REMARK   47  A    between atoms: _121  and  _122
REMARK   48  A    between atoms: _125  and  _127
REMARK   49  A    between atoms: _127  and  _128
REMARK   50  A    between atoms: _127  and  _130
REMARK   51  A    between atoms: _130  and  _131
REMARK   52  A    between atoms: _141  and  _143
REMARK   53  A    between atoms: _143  and  _144
REMARK   54  A    between atoms: _143  and  _146
REMARK   55  A    between atoms: _146  and  _147
REMARK   56  A    between atoms: _147  and  _148
REMARK   57  A    between atoms: _153  and  _155
REMARK   58  A    between atoms: _155  and  _156
REMARK   59  A    between atoms: _159  and  _161
REMARK   60  A    between atoms: _161  and  _162
REMARK   61  A    between atoms: _161  and  _164
REMARK   62  A    between atoms: _164  and  _165
REMARK   63  A    between atoms: _170  and  _171
REMARK   64  A    between atoms: _173  and  _175
REMARK   65  A    between atoms: _175  and  _176
REMARK   66  A    between atoms: _175  and  _178
REMARK   67  A    between atoms: _178  and  _179
REMARK   68  A    between atoms: _184  and  _186
REMARK   69  A    between atoms: _186  and  _187
REMARK   70  A    between atoms: _186  and  _189
REMARK   71  A    between atoms: _189  and  _190
REMARK   72  A    between atoms: _193  and  _195
REMARK   73  A    between atoms: _195  and  _196
REMARK   74  A    between atoms: _195  and  _198
REMARK   75  A    between atoms: _198  and  _199
REMARK   76  A    between atoms: _204  and  _205
REMARK   77  A    between atoms: _208  and  _209
REMARK   78  A    between atoms: _214  and  _216
REMARK   79  A    between atoms: _216  and  _217
REMARK   80  A    between atoms: _216  and  _219
REMARK   81  A    between atoms: _219  and  _220
REMARK   82  A    between atoms: _230  and  _232
REMARK   83  A    between atoms: _232  and  _233
REMARK   84  A    between atoms: _232  and  _235
REMARK   85  A    between atoms: _235  and  _236
REMARK   86  A    between atoms: _236  and  _237
REMARK   87  A    between atoms: _237  and  _238
REMARK   88  A    between atoms: _247  and  _249
REMARK   89  A    between atoms: _249  and  _250
REMARK   90  A    between atoms: _249  and  _252
REMARK   91  A    between atoms: _252  and  _253
REMARK   92  A    between atoms: _258  and  _260
REMARK   93  A    between atoms: _260  and  _261
REMARK   94  A    between atoms: _260  and  _263
REMARK   95  A    between atoms: _263  and  _264
REMARK   96  A    between atoms: _267  and  _269
REMARK   97  A    between atoms: _269  and  _270
REMARK   98  A    between atoms: _269  and  _272
REMARK   99  A    between atoms: _272  and  _273
REMARK  100  A    between atoms: _283  and  _285
REMARK  101  A    between atoms: _285  and  _286
REMARK  102  A    between atoms: _285  and  _288
REMARK  103  A    between atoms: _288  and  _289
REMARK  104  A    between atoms: _289  and  _290
REMARK  105  A    between atoms: _290  and  _291
REMARK  106  A    between atoms: _300  and  _302
REMARK  107  A    between atoms: _302  and  _303
REMARK  108  A    between atoms: _302  and  _305
REMARK  109  A    between atoms: _305  and  _306
REMARK  110  A    between atoms: _310  and  FE_383
REMARK  111  A    between atoms: _311  and  _313
REMARK  112  A    between atoms: _313  and  _314
REMARK  113  A    between atoms: _313  and  _316
REMARK  114  A    between atoms: _316  and  _317
REMARK  115  A    between atoms: _321  and  FE_383
REMARK  116  A    between atoms: _322  and  _324
REMARK  117  A    between atoms: _324  and  _325
REMARK  118  A    between atoms: _324  and  _327
REMARK  119  A    between atoms: _328  and  _329
REMARK  120  A    between atoms: _334  and  _336
REMARK  121  A    between atoms: _336  and  _337
REMARK  122  A    between atoms: _336  and  _339
REMARK  123  A    between atoms: _339  and  _340
REMARK  124  A    between atoms: _345  and  _346
REMARK  125  A    between atoms: _348  and  _350
REMARK  126  A    between atoms: _350  and  _351
REMARK  127  A    between atoms: _350  and  _353
REMARK  128  A    between atoms: _355  and  _357
REMARK  129  A    between atoms: _357  and  _358
REMARK  130  A    between atoms: _357  and  _360
REMARK  131  A    between atoms: _360  and  _361
REMARK  132  A    between atoms: _364  and  _366
REMARK  133  A    between atoms: _366  and  _367
REMARK  134  A    between atoms: _366  and  _369
REMARK  135  A    between atoms: _369  and  _370
REMARK  136  A    between atoms: _370  and  _371
REMARK  137  A    between atoms: _374  and  _376
REMARK  138  A    between atoms: _376  and  _377
REMARK  139  A    between atoms: _376  and  _379
REMARK  140  A    between atoms: _379  and  _380
REMARK  141  A    between atoms: _380  and  _381
REMARK                            x       y       z     vdW  Elec       q    Type
REMARK                         _______ _______ _______ _____ _____    ______ ____
ROOT
ATOM      1  CA  TRP A   2       5.599  12.446  38.048  0.00  0.00    +0.153 C 
ENDROOT
BRANCH   1   4
ATOM      2  C   ASP A   1       5.887  14.867  37.874  0.00  0.00    +0.239 C 
ATOM      3  O   ASP A   1       5.894  15.076  39.091  0.00  0.00    -0.274 OA
ATOM      4  N   TRP A   2       5.791  13.690  37.307  0.00  0.00    -0.297 N 
ATOM      5  H   TRP A   2       5.855  13.638  36.270  0.00  0.00    +0.150 HD
BRANCH   2   6
ATOM      6  CA  ASP A   1       6.083  16.023  36.897  0.00  0.00    +0.156 C 
BRANCH   6   7
ATOM      7  N   ASP A   1       5.325  17.214  37.313  0.00  0.00    -0.238 NA
ATOM      8  H   ASP A   1       5.766  17.876  37.982  0.00  0.00    +0.142 HD
ENDBRANCH   6   7
BRANCH   6   9
ATOM      9  CB  ASP A   1       7.583  16.332  36.694  0.00  0.00    +0.140 C 
BRANCH   9  10
ATOM     10  CG  ASP A   1       7.784  17.048  35.370  0.00  0.00    +0.367 C 
ATOM     11  OD2 ASP A   1       8.825  17.691  35.173  0.00  0.00    -0.246 OA
ATOM     12  OD1 ASP A   1       6.853  16.954  34.541  0.00  0.00    -0.246 OA
ENDBRANCH   9  10
ENDBRANCH   6   9
ENDBRANCH   2   6
ENDBRANCH   1   4
BRANCH   1  13
ATOM     13  C   TRP A   2       6.514  11.352  37.457  0.00  0.00    +0.241 C 
ATOM     14  N   ARG A   3       7.309  10.747  38.316  0.00  0.00    -0.298 N 
ATOM     15  H   ARG A   3       7.343  11.035  39.315  0.00  0.00    +0.150 HD
ATOM     16  O   TRP A   2       6.505  11.093  36.223  0.00  0.00    -0.273 OA
BRANCH  14  17
ATOM     17  CA  ARG A   3       8.166   9.624  37.799  0.00  0.00    +0.137 C 
BRANCH  17  18
ATOM     18  C   ARG A   3       7.161   8.430  37.637  0.00  0.00    +0.227 C 
ATOM     19  O   ARG A   3       6.286   8.272  38.471  0.00  0.00    -0.286 OA
ENDBRANCH  17  18
BRANCH  17  20
ATOM     20  CB  ARG A   3       9.182   9.141  38.858  0.00  0.00    +0.031 C 
BRANCH  20  21
ATOM     21  CG  ARG A   3      10.236  10.124  39.348  0.00  0.00    +0.045 C 
BRANCH  21  22
ATOM     22  CD  ARG A   3      11.098  10.686  38.254  0.00  0.00    +0.174 C 
BRANCH  22  23
ATOM     23  NE  ARG A   3      11.416   9.749  37.181  0.00  0.00    -0.265 N 
ATOM     24  CZ  ARG A   3      12.160   8.644  37.250  0.00  0.00    +0.342 C 
ATOM     25  NH2 ARG A   3      12.798   8.210  38.363  0.00  0.00    -0.292 N 
ATOM     26 HH21 ARG A   3      12.726   8.751  39.248  0.00  0.00    +0.255 HD
ATOM     27 HH22 ARG A   3      13.360   7.335  38.333  0.00  0.00    +0.255 HD
ATOM     28  NH1 ARG A   3      12.225   7.874  36.152  0.00  0.00    -0.292 N 
ATOM     29 HH11 ARG A   3      12.793   7.003  36.161  0.00  0.00    +0.255 HD
ATOM     30 HH12 ARG A   3      11.707   8.149  35.293  0.00  0.00    +0.255 HD
ATOM     31  HE  ARG A   3      11.013   9.970  36.248  0.00  0.00    +0.259 HD
ENDBRANCH  22  23
ENDBRANCH  21  22
ENDBRANCH  20  21
ENDBRANCH  17  20
ENDBRANCH  14  17
ENDBRANCH   1  13
BRANCH   1  32
ATOM     32  CB  TRP A   2       4.129  12.014  38.046  0.00  0.00    +0.057 C 
BRANCH  32  33
ATOM     33  CG  TRP A   2       3.146  12.850  38.777  0.00  0.00    -0.002 A 
ATOM     34  CD2 TRP A   2       2.558  12.598  40.064  0.00  0.00    +0.013 A 
ATOM     35  CE3 TRP A   2       2.683  11.571  40.978  0.00  0.00    +0.001 A 
ATOM     36  CZ3 TRP A   2       1.979  11.635  42.168  0.00  0.00    +0.000 A 
ATOM     37  CH2 TRP A   2       1.103  12.725  42.450  0.00  0.00    +0.001 A 
ATOM     38  CZ2 TRP A   2       0.983  13.788  41.558  0.00  0.00    +0.017 A 
ATOM     39  CE2 TRP A   2       1.734  13.701  40.373  0.00  0.00    +0.056 A 
ATOM     40  NE1 TRP A   2       1.749  14.582  39.316  0.00  0.00    -0.352 N 
ATOM     41  HE1 TRP A   2       1.206  15.466  39.243  0.00  0.00    +0.166 HD
ATOM     42  CD1 TRP A   2       2.631  14.069  38.356  0.00  0.00    +0.068 A 
ENDBRANCH  32  33
ENDBRANCH   1  32
TORSDOF 14
REMARK  Name = ../refined-set-2016/3pce/3pce_pocket.pdb
REMARK  141 active torsions:
REMARK  status: ('A' for Active; 'I' for Inactive)
REMARK    1  A    between atoms: _1  and  _3
REMARK    2  A    between atoms: _3  and  _4
REMARK    3  A    between atoms: _3  and  _6
REMARK    4  A    between atoms: _6  and  _7
REMARK    5  A    between atoms: _7  and  _8
REMARK    6  A    between atoms: _13  and  _15
REMARK    7  A    between atoms: _15  and  _16
REMARK    8  A    between atoms: _15  and  _18
REMARK    9  A    between atoms: _18  and  _19
REMARK   10  A    between atoms: _22  and  _24
REMARK   11  A    between atoms: _24  and  _25
REMARK   12  A    between atoms: _28  and  _30
REMARK   13  A    between atoms: _30  and  _31
REMARK   14  A    between atoms: _34  and  _35
REMARK   15  A    between atoms: _40  and  _42
REMARK   16  A    between atoms: _42  and  _43
REMARK   17  A    between atoms: _42  and  _45
REMARK   18  A    between atoms: _45  and  _46
REMARK   19  A    between atoms: _51  and  _52
REMARK   20  A    between atoms: _54  and  _56
REMARK   21  A    between atoms: _56  and  _57
REMARK   22  A    between atoms: _56  and  _59
REMARK   23  A    between atoms: _62  and  _64
REMARK   24  A    between atoms: _64  and  _65
REMARK   25  A    between atoms: _64  and  _67
REMARK   26  A    between atoms: _67  and  _68
REMARK   27  A    between atoms: _71  and  _73
REMARK   28  A    between atoms: _73  and  _74
REMARK   29  A    between atoms: _73  and  _76
REMARK   30  A    between atoms: _76  and  _77
REMARK   31  A    between atoms: _80  and  _82
REMARK   32  A    between atoms: _82  and  _83
REMARK   33  A    between atoms: _82  and  _85
REMARK   34  A    between atoms: _85  and  _86
REMARK   35  A    between atoms: _86  and  _87
REMARK   36  A    between atoms: _87  and  _88
REMARK   37  A    between atoms: _97  and  _99
REMARK   38  A    between atoms: _99  and  _100
REMARK   39  A    between atoms: _102  and  _104
REMARK   40  A    between atoms: _104  and  _105
REMARK   41  A    between atoms: _104  and  _107
REMARK   42  A    between atoms: _107  and  _108
REMARK   43  A    between atoms: _113  and  _114
REMARK   44  A    between atoms: _116  and  _118
REMARK   45  A    between atoms: _118  and  _119
REMARK   46  A    between atoms: _118  and  _121
REMARK   47  A    between atoms: _121  and  _122
REMARK   48  A    between atoms: _125  and  _127
REMARK   49  A    between atoms: _127  and  _128
REMARK   50  A    between atoms: _127  and  _130
REMARK   51  A    between atoms: _130  and  _131
REMARK   52  A    between atoms: _141  and  _143
REMARK   53  A    between atoms: _143  and  _144
REMARK   54  A    between atoms: _143  and  _146
REMARK   55  A    between atoms: _146  and  _147
REMARK   56  A    between atoms: _147  and  _148
REMARK   57  A    between atoms: _153  and  _155
REMARK   58  A    between atoms: _155  and  _156
REMARK   59  A    between atoms: _159  and  _161
REMARK   60  A    between atoms: _161  and  _162
REMARK   61  A    between atoms: _161  and  _164
REMARK   62  A    between atoms: _164  and  _165
REMARK   63  A    between atoms: _170  and  _171
REMARK   64  A    between atoms: _173  and  _175
REMARK   65  A    between atoms: _175  and  _176
REMARK   66  A    between atoms: _175  and  _178
REMARK   67  A    between atoms: _178  and  _179
REMARK   68  A    between atoms: _184  and  _186
REMARK   69  A    between atoms: _186  and  _187
REMARK   70  A    between atoms: _186  and  _189
REMARK   71  A    between atoms: _189  and  _190
REMARK   72  A    between atoms: _193  and  _195
REMARK   73  A    between atoms: _195  and  _196
REMARK   74  A    between atoms: _195  and  _198
REMARK   75  A    between atoms: _198  and  _199
REMARK   76  A    between atoms: _204  and  _205
REMARK   77  A    between atoms: _208  and  _209
REMARK   78  A    between atoms: _214  and  _216
REMARK   79  A    between atoms: _216  and  _217
REMARK   80  A    between atoms: _216  and  _219
REMARK   81  A    between atoms: _219  and  _220
REMARK   82  A    between atoms: _230  and  _232
REMARK   83  A    between atoms: _232  and  _233
REMARK   84  A    between atoms: _232  and  _235
REMARK   85  A    between atoms: _235  and  _236
REMARK   86  A    between atoms: _236  and  _237
REMARK   87  A    between atoms: _237  and  _238
REMARK   88  A    between atoms: _247  and  _249
REMARK   89  A    between atoms: _249  and  _250
REMARK   90  A    between atoms: _249  and  _252
REMARK   91  A    between atoms: _252  and  _253
REMARK   92  A    between atoms: _258  and  _260
REMARK   93  A    between atoms: _260  and  _261
REMARK   94  A    between atoms: _260  and  _263
REMARK   95  A    between atoms: _263  and  _264
REMARK   96  A    between atoms: _267  and  _269
REMARK   97  A    between atoms: _269  and  _270
REMARK   98  A    between atoms: _269  and  _272
REMARK   99  A    between atoms: _272  and  _273
REMARK  100  A    between atoms: _283  and  _285
REMARK  101  A    between atoms: _285  and  _286
REMARK  102  A    between atoms: _285  and  _288
REMARK  103  A    between atoms: _288  and  _289
REMARK  104  A    between atoms: _289  and  _290
REMARK  105  A    between atoms: _290  and  _291
REMARK  106  A    between atoms: _300  and  _302
REMARK  107  A    between atoms: _302  and  _303
REMARK  108  A    between atoms: _302  and  _305
REMARK  109  A    between atoms: _305  and  _306
REMARK  110  A    between atoms: _310  and  FE_383
REMARK  111  A    between atoms: _311  and  _313
REMARK  112  A    between atoms: _313  and  _314
REMARK  113  A    between atoms: _313  and  _316
REMARK  114  A    between atoms: _316  and  _317
REMARK  115  A    between atoms: _321  and  FE_383
REMARK  116  A    between atoms: _322  and  _324
REMARK  117  A    between atoms: _324  and  _325
REMARK  118  A    between atoms: _324  and  _327
REMARK  119  A    between atoms: _328  and  _329
REMARK  120  A    between atoms: _334  and  _336
REMARK  121  A    between atoms: _336  and  _337
REMARK  122  A    between atoms: _336  and  _339
REMARK  123  A    between atoms: _339  and  _340
REMARK  124  A    between atoms: _345  and  _346
REMARK  125  A    between atoms: _348  and  _350
REMARK  126  A    between atoms: _350  and  _351
REMARK  127  A    between atoms: _350  and  _353
REMARK  128  A    between atoms: _355  and  _357
REMARK  129  A    between atoms: _357  and  _358
REMARK  130  A    between atoms: _357  and  _360
REMARK  131  A    between atoms: _360  and  _361
REMARK  132  A    between atoms: _364  and  _366
REMARK  133  A    between atoms: _366  and  _367
REMARK  134  A    between atoms: _366  and  _369
REMARK  135  A    between atoms: _369  and  _370
REMARK  136  A    between atoms: _370  and  _371
REMARK  137  A    between atoms: _374  and  _376
REMARK  138  A    between atoms: _376  and  _377
REMARK  139  A    between atoms: _376  and  _379
REMARK  140  A    between atoms: _379  and  _380
REMARK  141  A    between atoms: _380  and  _381
REMARK                            x       y       z     vdW  Elec       q    Type
REMARK                         _______ _______ _______ _____ _____    ______ ____
ROOT
ATOM      1 FE   UNL     1      13.186   6.799  42.402  0.00  0.00    +0.000 Fe
ENDROOT
BRANCH   1   4
ATOM      2  C   UNL     1      11.463   4.451  39.229  0.00  0.00    +0.000 A 
ATOM      3  C   UNL     1      12.437   4.584  40.157  0.00  0.00    +0.000 A 
ATOM      4  N   UNL     1      12.158   5.727  40.867  0.00  0.00    +0.000 N 
ATOM      5  C   UNL     1      11.072   6.304  40.380  0.00  0.00    +0.000 A 
ATOM      6  N   UNL     1      10.612   5.521  39.427  0.00  0.00    +0.000 NA
BRANCH   2   7
ATOM      7  C   UNL     1      11.250   3.366  38.237  0.00  0.00    +0.000 C 
BRANCH   7   8
ATOM      8  CA  UNL     1      10.358   2.231  38.860  0.00  0.00    +0.000 C 
BRANCH   8   9
ATOM      9  N   UNL     1       9.040   2.756  39.287  0.00  0.00    +0.000 NA
ATOM     10  H   UNL     1       8.892   3.011  40.284  0.00  0.00    +0.000 HD
ENDBRANCH   8   9
BRANCH   8  11
ATOM     11  C   UNL     1      11.165   1.638  40.026  0.00  0.00    +0.000 C 
ATOM     12  O   UNL     1      10.898   1.991  41.163  0.00  0.00    +0.000 OA
ENDBRANCH   8  11
ENDBRANCH   7   8
ENDBRANCH   2   7
ENDBRANCH   1   4
BRANCH   1  13
ATOM     13  N   UNL     1      15.200   5.512  42.048  0.00  0.00    +0.000 N 
ATOM     14  C   UNL     1      15.394   4.216  42.493  0.00  0.00    +0.000 A 
ATOM     15  C   UNL     1      16.456   3.748  41.804  0.00  0.00    +0.000 A 
ATOM     16  N   UNL     1      16.864   4.766  40.960  0.00  0.00    +0.000 NA
ATOM     17  C   UNL     1      16.085   5.824  41.134  0.00  0.00    +0.000 A 
BRANCH  15  18
ATOM     18  C   UNL     1      17.142   2.422  41.865  0.00  0.00    +0.000 C 
BRANCH  18  19
ATOM     19  CA  UNL     1      16.567   1.403  40.882  0.00  0.00    +0.000 C 
BRANCH  19  20
ATOM     20  N   UNL     1      15.166   1.012  41.190  0.00  0.00    +0.000 NA
ATOM     21  H   UNL     1      14.799   1.109  42.158  0.00  0.00    +0.000 HD
ENDBRANCH  19  20
BRANCH  19  22
ATOM     22  C   UNL     1      17.447   0.169  40.872  0.00  0.00    +0.000 C 
ATOM     23  O   UNL     1      17.288  -0.673  41.786  0.00  0.00    +0.000 OA
ENDBRANCH  19  22
ENDBRANCH  18  19
ENDBRANCH  15  18
ENDBRANCH   1  13
TORSDOF 10
REMARK  Name = ../refined-set-2016/3pce/3pce_pocket.pdb
REMARK  141 active torsions:
REMARK  status: ('A' for Active; 'I' for Inactive)
REMARK    1  A    between atoms: _1  and  _3
REMARK    2  A    between atoms: _3  and  _4
REMARK    3  A    between atoms: _3  and  _6
REMARK    4  A    between atoms: _6  and  _7
REMARK    5  A    between atoms: _7  and  _8
REMARK    6  A    between atoms: _13  and  _15
REMARK    7  A    between atoms: _15  and  _16
REMARK    8  A    between atoms: _15  and  _18
REMARK    9  A    between atoms: _18  and  _19
REMARK   10  A    between atoms: _22  and  _24
REMARK   11  A    between atoms: _24  and  _25
REMARK   12  A    between atoms: _28  and  _30
REMARK   13  A    between atoms: _30  and  _31
REMARK   14  A    between atoms: _34  and  _35
REMARK   15  A    between atoms: _40  and  _42
REMARK   16  A    between atoms: _42  and  _43
REMARK   17  A    between atoms: _42  and  _45
REMARK   18  A    between atoms: _45  and  _46
REMARK   19  A    between atoms: _51  and  _52
REMARK   20  A    between atoms: _54  and  _56
REMARK   21  A    between atoms: _56  and  _57
REMARK   22  A    between atoms: _56  and  _59
REMARK   23  A    between atoms: _62  and  _64
REMARK   24  A    between atoms: _64  and  _65
REMARK   25  A    between atoms: _64  and  _67
REMARK   26  A    between atoms: _67  and  _68
REMARK   27  A    between atoms: _71  and  _73
REMARK   28  A    between atoms: _73  and  _74
REMARK   29  A    between atoms: _73  and  _76
REMARK   30  A    between atoms: _76  and  _77
REMARK   31  A    between atoms: _80  and  _82
REMARK   32  A    between atoms: _82  and  _83
REMARK   33  A    between atoms: _82  and  _85
REMARK   34  A    between atoms: _85  and  _86
REMARK   35  A    between atoms: _86  and  _87
REMARK   36  A    between atoms: _87  and  _88
REMARK   37  A    between atoms: _97  and  _99
REMARK   38  A    between atoms: _99  and  _100
REMARK   39  A    between atoms: _102  and  _104
REMARK   40  A    between atoms: _104  and  _105
REMARK   41  A    between atoms: _104  and  _107
REMARK   42  A    between atoms: _107  and  _108
REMARK   43  A    between atoms: _113  and  _114
REMARK   44  A    between atoms: _116  and  _118
REMARK   45  A    between atoms: _118  and  _119
REMARK   46  A    between atoms: _118  and  _121
REMARK   47  A    between atoms: _121  and  _122
REMARK   48  A    between atoms: _125  and  _127
REMARK   49  A    between atoms: _127  and  _128
REMARK   50  A    between atoms: _127  and  _130
REMARK   51  A    between atoms: _130  and  _131
REMARK   52  A    between atoms: _141  and  _143
REMARK   53  A    between atoms: _143  and  _144
REMARK   54  A    between atoms: _143  and  _146
REMARK   55  A    between atoms: _146  and  _147
REMARK   56  A    between atoms: _147  and  _148
REMARK   57  A    between atoms: _153  and  _155
REMARK   58  A    between atoms: _155  and  _156
REMARK   59  A    between atoms: _159  and  _161
REMARK   60  A    between atoms: _161  and  _162
REMARK   61  A    between atoms: _161  and  _164
REMARK   62  A    between atoms: _164  and  _165
REMARK   63  A    between atoms: _170  and  _171
REMARK   64  A    between atoms: _173  and  _175
REMARK   65  A    between atoms: _175  and  _176
REMARK   66  A    between atoms: _175  and  _178
REMARK   67  A    between atoms: _178  and  _179
REMARK   68  A    between atoms: _184  and  _186
REMARK   69  A    between atoms: _186  and  _187
REMARK   70  A    between atoms: _186  and  _189
REMARK   71  A    between atoms: _189  and  _190
REMARK   72  A    between atoms: _193  and  _195
REMARK   73  A    between atoms: _195  and  _196
REMARK   74  A    between atoms: _195  and  _198
REMARK   75  A    between atoms: _198  and  _199
REMARK   76  A    between atoms: _204  and  _205
REMARK   77  A    between atoms: _208  and  _209
REMARK   78  A    between atoms: _214  and  _216
REMARK   79  A    between atoms: _216  and  _217
REMARK   80  A    between atoms: _216  and  _219
REMARK   81  A    between atoms: _219  and  _220
REMARK   82  A    between atoms: _230  and  _232
REMARK   83  A    between atoms: _232  and  _233
REMARK   84  A    between atoms: _232  and  _235
REMARK   85  A    between atoms: _235  and  _236
REMARK   86  A    between atoms: _236  and  _237
REMARK   87  A    between atoms: _237  and  _238
REMARK   88  A    between atoms: _247  and  _249
REMARK   89  A    between atoms: _249  and  _250
REMARK   90  A    between atoms: _249  and  _252
REMARK   91  A    between atoms: _252  and  _253
REMARK   92  A    between atoms: _258  and  _260
REMARK   93  A    between atoms: _260  and  _261
REMARK   94  A    between atoms: _260  and  _263
REMARK   95  A    between atoms: _263  and  _264
REMARK   96  A    between atoms: _267  and  _269
REMARK   97  A    between atoms: _269  and  _270
REMARK   98  A    between atoms: _269  and  _272
REMARK   99  A    between atoms: _272  and  _273
REMARK  100  A    between atoms: _283  and  _285
REMARK  101  A    between atoms: _285  and  _286
REMARK  102  A    between atoms: _285  and  _288
REMARK  103  A    between atoms: _288  and  _289
REMARK  104  A    between atoms: _289  and  _290
REMARK  105  A    between atoms: _290  and  _291
REMARK  106  A    between atoms: _300  and  _302
REMARK  107  A    between atoms: _302  and  _303
REMARK  108  A    between atoms: _302  and  _305
REMARK  109  A    between atoms: _305  and  _306
REMARK  110  A    between atoms: _310  and  FE_383
REMARK  111  A    between atoms: _311  and  _313
REMARK  112  A    between atoms: _313  and  _314
REMARK  113  A    between atoms: _313  and  _316
REMARK  114  A    between atoms: _316  and  _317
REMARK  115  A    between atoms: _321  and  FE_383
REMARK  116  A    between atoms: _322  and  _324
REMARK  117  A    between atoms: _324  and  _325
REMARK  118  A    between atoms: _324  and  _327
REMARK  119  A    between atoms: _328  and  _329
REMARK  120  A    between atoms: _334  and  _336
REMARK  121  A    between atoms: _336  and  _337
REMARK  122  A    between atoms: _336  and  _339
REMARK  123  A    between atoms: _339  and  _340
REMARK  124  A    between atoms: _345  and  _346
REMARK  125  A    between atoms: _348  and  _350
REMARK  126  A    between atoms: _350  and  _351
REMARK  127  A    between atoms: _350  and  _353
REMARK  128  A    between atoms: _355  and  _357
REMARK  129  A    between atoms: _357  and  _358
REMARK  130  A    between atoms: _357  and  _360
REMARK  131  A    between atoms: _360  and  _361
REMARK  132  A    between atoms: _364  and  _366
REMARK  133  A    between atoms: _366  and  _367
REMARK  134  A    between atoms: _366  and  _369
REMARK  135  A    between atoms: _369  and  _370
REMARK  136  A    between atoms: _370  and  _371
REMARK  137  A    between atoms: _374  and  _376
REMARK  138  A    between atoms: _376  and  _377
REMARK  139  A    between atoms: _376  and  _379
REMARK  140  A    between atoms: _379  and  _380
REMARK  141  A    between atoms: _380  and  _381
REMARK                            x       y       z     vdW  Elec       q    Type
REMARK                         _______ _______ _______ _____ _____    ______ ____
ROOT
ATOM      1  CB  GLN A   1      15.362   3.418  36.639  0.00  0.00    +0.003 C 
ATOM      2  CG  GLN A   1      16.135   4.428  37.445  0.00  0.00    +0.055 C 
ENDROOT
BRANCH   2   3
ATOM      3  CD  GLN A   1      15.543   5.771  37.640  0.00  0.00    +0.243 C 
ATOM      4  NE2 GLN A   1      16.347   6.819  37.724  0.00  0.00    -0.325 N 
ATOM      5 HE21 GLN A   1      15.948   7.775  37.817  0.00  0.00    +0.145 HD
ATOM      6 HE22 GLN A   1      17.378   6.687  37.697  0.00  0.00    +0.145 HD
ATOM      7  OE1 GLN A   1      14.268   5.981  37.678  0.00  0.00    -0.270 OA
ENDBRANCH   2   3
BRANCH   1   8
ATOM      8  CA  GLN A   1      15.993   2.029  36.458  0.00  0.00    +0.155 C 
BRANCH   8   9
ATOM      9  N   GLN A   1      17.351   2.059  35.869  0.00  0.00    -0.235 NA
ATOM     10  H   GLN A   1      17.434   2.125  34.834  0.00  0.00    +0.142 HD
ENDBRANCH   8   9
BRANCH   8  11
ATOM     11  C   GLN A   1      15.113   1.161  35.544  0.00  0.00    +0.229 C 
ATOM     12  O   GLN A   1      15.162   1.233  34.315  0.00  0.00    -0.286 OA
ENDBRANCH   8  11
ENDBRANCH   1   8
TORSDOF 4
REMARK  Name = ../refined-set-2016/3pce/3pce_pocket.pdb
REMARK  141 active torsions:
REMARK  status: ('A' for Active; 'I' for Inactive)
REMARK    1  A    between atoms: _1  and  _3
REMARK    2  A    between atoms: _3  and  _4
REMARK    3  A    between atoms: _3  and  _6
REMARK    4  A    between atoms: _6  and  _7
REMARK    5  A    between atoms: _7  and  _8
REMARK    6  A    between atoms: _13  and  _15
REMARK    7  A    between atoms: _15  and  _16
REMARK    8  A    between atoms: _15  and  _18
REMARK    9  A    between atoms: _18  and  _19
REMARK   10  A    between atoms: _22  and  _24
REMARK   11  A    between atoms: _24  and  _25
REMARK   12  A    between atoms: _28  and  _30
REMARK   13  A    between atoms: _30  and  _31
REMARK   14  A    between atoms: _34  and  _35
REMARK   15  A    between atoms: _40  and  _42
REMARK   16  A    between atoms: _42  and  _43
REMARK   17  A    between atoms: _42  and  _45
REMARK   18  A    between atoms: _45  and  _46
REMARK   19  A    between atoms: _51  and  _52
REMARK   20  A    between atoms: _54  and  _56
REMARK   21  A    between atoms: _56  and  _57
REMARK   22  A    between atoms: _56  and  _59
REMARK   23  A    between atoms: _62  and  _64
REMARK   24  A    between atoms: _64  and  _65
REMARK   25  A    between atoms: _64  and  _67
REMARK   26  A    between atoms: _67  and  _68
REMARK   27  A    between atoms: _71  and  _73
REMARK   28  A    between atoms: _73  and  _74
REMARK   29  A    between atoms: _73  and  _76
REMARK   30  A    between atoms: _76  and  _77
REMARK   31  A    between atoms: _80  and  _82
REMARK   32  A    between atoms: _82  and  _83
REMARK   33  A    between atoms: _82  and  _85
REMARK   34  A    between atoms: _85  and  _86
REMARK   35  A    between atoms: _86  and  _87
REMARK   36  A    between atoms: _87  and  _88
REMARK   37  A    between atoms: _97  and  _99
REMARK   38  A    between atoms: _99  and  _100
REMARK   39  A    between atoms: _102  and  _104
REMARK   40  A    between atoms: _104  and  _105
REMARK   41  A    between atoms: _104  and  _107
REMARK   42  A    between atoms: _107  and  _108
REMARK   43  A    between atoms: _113  and  _114
REMARK   44  A    between atoms: _116  and  _118
REMARK   45  A    between atoms: _118  and  _119
REMARK   46  A    between atoms: _118  and  _121
REMARK   47  A    between atoms: _121  and  _122
REMARK   48  A    between atoms: _125  and  _127
REMARK   49  A    between atoms: _127  and  _128
REMARK   50  A    between atoms: _127  and  _130
REMARK   51  A    between atoms: _130  and  _131
REMARK   52  A    between atoms: _141  and  _143
REMARK   53  A    between atoms: _143  and  _144
REMARK   54  A    between atoms: _143  and  _146
REMARK   55  A    between atoms: _146  and  _147
REMARK   56  A    between atoms: _147  and  _148
REMARK   57  A    between atoms: _153  and  _155
REMARK   58  A    between atoms: _155  and  _156
REMARK   59  A    between atoms: _159  and  _161
REMARK   60  A    between atoms: _161  and  _162
REMARK   61  A    between atoms: _161  and  _164
REMARK   62  A    between atoms: _164  and  _165
REMARK   63  A    between atoms: _170  and  _171
REMARK   64  A    between atoms: _173  and  _175
REMARK   65  A    between atoms: _175  and  _176
REMARK   66  A    between atoms: _175  and  _178
REMARK   67  A    between atoms: _178  and  _179
REMARK   68  A    between atoms: _184  and  _186
REMARK   69  A    between atoms: _186  and  _187
REMARK   70  A    between atoms: _186  and  _189
REMARK   71  A    between atoms: _189  and  _190
REMARK   72  A    between atoms: _193  and  _195
REMARK   73  A    between atoms: _195  and  _196
REMARK   74  A    between atoms: _195  and  _198
REMARK   75  A    between atoms: _198  and  _199
REMARK   76  A    between atoms: _204  and  _205
REMARK   77  A    between atoms: _208  and  _209
REMARK   78  A    between atoms: _214  and  _216
REMARK   79  A    between atoms: _216  and  _217
REMARK   80  A    between atoms: _216  and  _219
REMARK   81  A    between atoms: _219  and  _220
REMARK   82  A    between atoms: _230  and  _232
REMARK   83  A    between atoms: _232  and  _233
REMARK   84  A    between atoms: _232  and  _235
REMARK   85  A    between atoms: _235  and  _236
REMARK   86  A    between atoms: _236  and  _237
REMARK   87  A    between atoms: _237  and  _238
REMARK   88  A    between atoms: _247  and  _249
REMARK   89  A    between atoms: _249  and  _250
REMARK   90  A    between atoms: _249  and  _252
REMARK   91  A    between atoms: _252  and  _253
REMARK   92  A    between atoms: _258  and  _260
REMARK   93  A    between atoms: _260  and  _261
REMARK   94  A    between atoms: _260  and  _263
REMARK   95  A    between atoms: _263  and  _264
REMARK   96  A    between atoms: _267  and  _269
REMARK   97  A    between atoms: _269  and  _270
REMARK   98  A    between atoms: _269  and  _272
REMARK   99  A    between atoms: _272  and  _273
REMARK  100  A    between atoms: _283  and  _285
REMARK  101  A    between atoms: _285  and  _286
REMARK  102  A    between atoms: _285  and  _288
REMARK  103  A    between atoms: _288  and  _289
REMARK  104  A    between atoms: _289  and  _290
REMARK  105  A    between atoms: _290  and  _291
REMARK  106  A    between atoms: _300  and  _302
REMARK  107  A    between atoms: _302  and  _303
REMARK  108  A    between atoms: _302  and  _305
REMARK  109  A    between atoms: _305  and  _306
REMARK  110  A    between atoms: _310  and  FE_383
REMARK  111  A    between atoms: _311  and  _313
REMARK  112  A    between atoms: _313  and  _314
REMARK  113  A    between atoms: _313  and  _316
REMARK  114  A    between atoms: _316  and  _317
REMARK  115  A    between atoms: _321  and  FE_383
REMARK  116  A    between atoms: _322  and  _324
REMARK  117  A    between atoms: _324  and  _325
REMARK  118  A    between atoms: _324  and  _327
REMARK  119  A    between atoms: _328  and  _329
REMARK  120  A    between atoms: _334  and  _336
REMARK  121  A    between atoms: _336  and  _337
REMARK  122  A    between atoms: _336  and  _339
REMARK  123  A    between atoms: _339  and  _340
REMARK  124  A    between atoms: _345  and  _346
REMARK  125  A    between atoms: _348  and  _350
REMARK  126  A    between atoms: _350  and  _351
REMARK  127  A    between atoms: _350  and  _353
REMARK  128  A    between atoms: _355  and  _357
REMARK  129  A    between atoms: _357  and  _358
REMARK  130  A    between atoms: _357  and  _360
REMARK  131  A    between atoms: _360  and  _361
REMARK  132  A    between atoms: _364  and  _366
REMARK  133  A    between atoms: _366  and  _367
REMARK  134  A    between atoms: _366  and  _369
REMARK  135  A    between atoms: _369  and  _370
REMARK  136  A    between atoms: _370  and  _371
REMARK  137  A    between atoms: _374  and  _376
REMARK  138  A    between atoms: _376  and  _377
REMARK  139  A    between atoms: _376  and  _379
REMARK  140  A    between atoms: _379  and  _380
REMARK  141  A    between atoms: _380  and  _381
REMARK                            x       y       z     vdW  Elec       q    Type
REMARK                         _______ _______ _______ _____ _____    ______ ____
ROOT
ATOM      1  CG  TYR A   1      10.891   2.789  33.589  0.00  0.00    -0.020 A 
ATOM      2  CD2 TYR A   1      10.665   3.647  34.685  0.00  0.00    -0.001 A 
ATOM      3  CE2 TYR A   1      11.538   4.718  34.924  0.00  0.00    +0.036 A 
ATOM      4  CZ  TYR A   1      12.689   4.851  34.128  0.00  0.00    +0.134 A 
ATOM      5  CE1 TYR A   1      12.935   3.990  33.073  0.00  0.00    +0.036 A 
ATOM      6  CD1 TYR A   1      12.047   2.935  32.813  0.00  0.00    -0.001 A 
ENDROOT
BRANCH   4   7
ATOM      7  OH  TYR A   1      13.475   5.912  34.404  0.00  0.00    -0.506 OA
ATOM      8  HH  TYR A   1      14.395   5.599  34.593  0.00  0.00    +0.292 HD
ENDBRANCH   4   7
BRANCH   1   9
ATOM      9  CB  TYR A   1       9.894   1.678  33.329  0.00  0.00    +0.051 C 
BRANCH   9  10
ATOM     10  CA  TYR A   1       9.930   0.653  34.449  0.00  0.00    +0.137 C 
BRANCH  10  11
ATOM     11  N   TYR A   1      11.305   0.086  34.559  0.00  0.00    -0.239 NA
ATOM     12  H   TYR A   1      11.735  -0.366  33.727  0.00  0.00    +0.142 HD
ENDBRANCH  10  11
BRANCH  10  13
ATOM     13  C   TYR A   1       9.011  -0.545  34.229  0.00  0.00    +0.224 C 
ATOM     14  O   TYR A   1       9.555  -1.596  33.858  0.00  0.00    -0.287 OA
ENDBRANCH  10  13
ENDBRANCH   9  10
ENDBRANCH   1   9
TORSDOF 5
REMARK  Name = ../refined-set-2016/3pce/3pce_pocket.pdb
REMARK  141 active torsions:
REMARK  status: ('A' for Active; 'I' for Inactive)
REMARK    1  A    between atoms: _1  and  _3
REMARK    2  A    between atoms: _3  and  _4
REMARK    3  A    between atoms: _3  and  _6
REMARK    4  A    between atoms: _6  and  _7
REMARK    5  A    between atoms: _7  and  _8
REMARK    6  A    between atoms: _13  and  _15
REMARK    7  A    between atoms: _15  and  _16
REMARK    8  A    between atoms: _15  and  _18
REMARK    9  A    between atoms: _18  and  _19
REMARK   10  A    between atoms: _22  and  _24
REMARK   11  A    between atoms: _24  and  _25
REMARK   12  A    between atoms: _28  and  _30
REMARK   13  A    between atoms: _30  and  _31
REMARK   14  A    between atoms: _34  and  _35
REMARK   15  A    between atoms: _40  and  _42
REMARK   16  A    between atoms: _42  and  _43
REMARK   17  A    between atoms: _42  and  _45
REMARK   18  A    between atoms: _45  and  _46
REMARK   19  A    between atoms: _51  and  _52
REMARK   20  A    between atoms: _54  and  _56
REMARK   21  A    between atoms: _56  and  _57
REMARK   22  A    between atoms: _56  and  _59
REMARK   23  A    between atoms: _62  and  _64
REMARK   24  A    between atoms: _64  and  _65
REMARK   25  A    between atoms: _64  and  _67
REMARK   26  A    between atoms: _67  and  _68
REMARK   27  A    between atoms: _71  and  _73
REMARK   28  A    between atoms: _73  and  _74
REMARK   29  A    between atoms: _73  and  _76
REMARK   30  A    between atoms: _76  and  _77
REMARK   31  A    between atoms: _80  and  _82
REMARK   32  A    between atoms: _82  and  _83
REMARK   33  A    between atoms: _82  and  _85
REMARK   34  A    between atoms: _85  and  _86
REMARK   35  A    between atoms: _86  and  _87
REMARK   36  A    between atoms: _87  and  _88
REMARK   37  A    between atoms: _97  and  _99
REMARK   38  A    between atoms: _99  and  _100
REMARK   39  A    between atoms: _102  and  _104
REMARK   40  A    between atoms: _104  and  _105
REMARK   41  A    between atoms: _104  and  _107
REMARK   42  A    between atoms: _107  and  _108
REMARK   43  A    between atoms: _113  and  _114
REMARK   44  A    between atoms: _116  and  _118
REMARK   45  A    between atoms: _118  and  _119
REMARK   46  A    between atoms: _118  and  _121
REMARK   47  A    between atoms: _121  and  _122
REMARK   48  A    between atoms: _125  and  _127
REMARK   49  A    between atoms: _127  and  _128
REMARK   50  A    between atoms: _127  and  _130
REMARK   51  A    between atoms: _130  and  _131
REMARK   52  A    between atoms: _141  and  _143
REMARK   53  A    between atoms: _143  and  _144
REMARK   54  A    between atoms: _143  and  _146
REMARK   55  A    between atoms: _146  and  _147
REMARK   56  A    between atoms: _147  and  _148
REMARK   57  A    between atoms: _153  and  _155
REMARK   58  A    between atoms: _155  and  _156
REMARK   59  A    between atoms: _159  and  _161
REMARK   60  A    between atoms: _161  and  _162
REMARK   61  A    between atoms: _161  and  _164
REMARK   62  A    between atoms: _164  and  _165
REMARK   63  A    between atoms: _170  and  _171
REMARK   64  A    between atoms: _173  and  _175
REMARK   65  A    between atoms: _175  and  _176
REMARK   66  A    between atoms: _175  and  _178
REMARK   67  A    between atoms: _178  and  _179
REMARK   68  A    between atoms: _184  and  _186
REMARK   69  A    between atoms: _186  and  _187
REMARK   70  A    between atoms: _186  and  _189
REMARK   71  A    between atoms: _189  and  _190
REMARK   72  A    between atoms: _193  and  _195
REMARK   73  A    between atoms: _195  and  _196
REMARK   74  A    between atoms: _195  and  _198
REMARK   75  A    between atoms: _198  and  _199
REMARK   76  A    between atoms: _204  and  _205
REMARK   77  A    between atoms: _208  and  _209
REMARK   78  A    between atoms: _214  and  _216
REMARK   79  A    between atoms: _216  and  _217
REMARK   80  A    between atoms: _216  and  _219
REMARK   81  A    between atoms: _219  and  _220
REMARK   82  A    between atoms: _230  and  _232
REMARK   83  A    between atoms: _232  and  _233
REMARK   84  A    between atoms: _232  and  _235
REMARK   85  A    between atoms: _235  and  _236
REMARK   86  A    between atoms: _236  and  _237
REMARK   87  A    between atoms: _237  and  _238
REMARK   88  A    between atoms: _247  and  _249
REMARK   89  A    between atoms: _249  and  _250
REMARK   90  A    between atoms: _249  and  _252
REMARK   91  A    between atoms: _252  and  _253
REMARK   92  A    between atoms: _258  and  _260
REMARK   93  A    between atoms: _260  and  _261
REMARK   94  A    between atoms: _260  and  _263
REMARK   95  A    between atoms: _263  and  _264
REMARK   96  A    between atoms: _267  and  _269
REMARK   97  A    between atoms: _269  and  _270
REMARK   98  A    between atoms: _269  and  _272
REMARK   99  A    between atoms: _272  and  _273
REMARK  100  A    between atoms: _283  and  _285
REMARK  101  A    between atoms: _285  and  _286
REMARK  102  A    between atoms: _285  and  _288
REMARK  103  A    between atoms: _288  and  _289
REMARK  104  A    between atoms: _289  and  _290
REMARK  105  A    between atoms: _290  and  _291
REMARK  106  A    between atoms: _300  and  _302
REMARK  107  A    between atoms: _302  and  _303
REMARK  108  A    between atoms: _302  and  _305
REMARK  109  A    between atoms: _305  and  _306
REMARK  110  A    between atoms: _310  and  FE_383
REMARK  111  A    between atoms: _311  and  _313
REMARK  112  A    between atoms: _313  and  _314
REMARK  113  A    between atoms: _313  and  _316
REMARK  114  A    between atoms: _316  and  _317
REMARK  115  A    between atoms: _321  and  FE_383
REMARK  116  A    between atoms: _322  and  _324
REMARK  117  A    between atoms: _324  and  _325
REMARK  118  A    between atoms: _324  and  _327
REMARK  119  A    between atoms: _328  and  _329
REMARK  120  A    between atoms: _334  and  _336
REMARK  121  A    between atoms: _336  and  _337
REMARK  122  A    between atoms: _336  and  _339
REMARK  123  A    between atoms: _339  and  _340
REMARK  124  A    between atoms: _345  and  _346
REMARK  125  A    between atoms: _348  and  _350
REMARK  126  A    between atoms: _350  and  _351
REMARK  127  A    between atoms: _350  and  _353
REMARK  128  A    between atoms: _355  and  _357
REMARK  129  A    between atoms: _357  and  _358
REMARK  130  A    between atoms: _357  and  _360
REMARK  131  A    between atoms: _360  and  _361
REMARK  132  A    between atoms: _364  and  _366
REMARK  133  A    between atoms: _366  and  _367
REMARK  134  A    between atoms: _366  and  _369
REMARK  135  A    between atoms: _369  and  _370
REMARK  136  A    between atoms: _370  and  _371
REMARK  137  A    between atoms: _374  and  _376
REMARK  138  A    between atoms: _376  and  _377
REMARK  139  A    between atoms: _376  and  _379
REMARK  140  A    between atoms: _379  and  _380
REMARK  141  A    between atoms: _380  and  _381
REMARK                            x       y       z     vdW  Elec       q    Type
REMARK                         _______ _______ _______ _____ _____    ______ ____
ROOT
ATOM      1  CA  CYS A   1       9.066  11.488  31.959  0.00  0.00    +0.145 C 
ENDROOT
BRANCH   1   2
ATOM      2  N   CYS A   1       7.980  11.236  31.024  0.00  0.00    -0.238 NA
ATOM      3  H   CYS A   1       7.791  10.263  30.709  0.00  0.00    +0.142 HD
ENDBRANCH   1   2
BRANCH   1   4
ATOM      4  CB  CYS A   1       9.363  10.262  32.790  0.00  0.00    +0.094 C 
ATOM      5  SG  CYS A   1      10.759  10.434  33.950  0.00  0.00    -0.080 S 
ENDBRANCH   1   4
BRANCH   1   6
ATOM      6  C   CYS A   1      10.322  12.042  31.284  0.00  0.00    +0.225 C 
ATOM      7  O   CYS A   1      10.916  11.414  30.419  0.00  0.00    -0.287 OA
ENDBRANCH   1   6
TORSDOF 3
REMARK  Name = ../refined-set-2016/3pce/3pce_pocket.pdb
REMARK  141 active torsions:
REMARK  status: ('A' for Active; 'I' for Inactive)
REMARK    1  A    between atoms: _1  and  _3
REMARK    2  A    between atoms: _3  and  _4
REMARK    3  A    between atoms: _3  and  _6
REMARK    4  A    between atoms: _6  and  _7
REMARK    5  A    between atoms: _7  and  _8
REMARK    6  A    between atoms: _13  and  _15
REMARK    7  A    between atoms: _15  and  _16
REMARK    8  A    between atoms: _15  and  _18
REMARK    9  A    between atoms: _18  and  _19
REMARK   10  A    between atoms: _22  and  _24
REMARK   11  A    between atoms: _24  and  _25
REMARK   12  A    between atoms: _28  and  _30
REMARK   13  A    between atoms: _30  and  _31
REMARK   14  A    between atoms: _34  and  _35
REMARK   15  A    between atoms: _40  and  _42
REMARK   16  A    between atoms: _42  and  _43
REMARK   17  A    between atoms: _42  and  _45
REMARK   18  A    between atoms: _45  and  _46
REMARK   19  A    between atoms: _51  and  _52
REMARK   20  A    between atoms: _54  and  _56
REMARK   21  A    between atoms: _56  and  _57
REMARK   22  A    between atoms: _56  and  _59
REMARK   23  A    between atoms: _62  and  _64
REMARK   24  A    between atoms: _64  and  _65
REMARK   25  A    between atoms: _64  and  _67
REMARK   26  A    between atoms: _67  and  _68
REMARK   27  A    between atoms: _71  and  _73
REMARK   28  A    between atoms: _73  and  _74
REMARK   29  A    between atoms: _73  and  _76
REMARK   30  A    between atoms: _76  and  _77
REMARK   31  A    between atoms: _80  and  _82
REMARK   32  A    between atoms: _82  and  _83
REMARK   33  A    between atoms: _82  and  _85
REMARK   34  A    between atoms: _85  and  _86
REMARK   35  A    between atoms: _86  and  _87
REMARK   36  A    between atoms: _87  and  _88
REMARK   37  A    between atoms: _97  and  _99
REMARK   38  A    between atoms: _99  and  _100
REMARK   39  A    between atoms: _102  and  _104
REMARK   40  A    between atoms: _104  and  _105
REMARK   41  A    between atoms: _104  and  _107
REMARK   42  A    between atoms: _107  and  _108
REMARK   43  A    between atoms: _113  and  _114
REMARK   44  A    between atoms: _116  and  _118
REMARK   45  A    between atoms: _118  and  _119
REMARK   46  A    between atoms: _118  and  _121
REMARK   47  A    between atoms: _121  and  _122
REMARK   48  A    between atoms: _125  and  _127
REMARK   49  A    between atoms: _127  and  _128
REMARK   50  A    between atoms: _127  and  _130
REMARK   51  A    between atoms: _130  and  _131
REMARK   52  A    between atoms: _141  and  _143
REMARK   53  A    between atoms: _143  and  _144
REMARK   54  A    between atoms: _143  and  _146
REMARK   55  A    between atoms: _146  and  _147
REMARK   56  A    between atoms: _147  and  _148
REMARK   57  A    between atoms: _153  and  _155
REMARK   58  A    between atoms: _155  and  _156
REMARK   59  A    between atoms: _159  and  _161
REMARK   60  A    between atoms: _161  and  _162
REMARK   61  A    between atoms: _161  and  _164
REMARK   62  A    between atoms: _164  and  _165
REMARK   63  A    between atoms: _170  and  _171
REMARK   64  A    between atoms: _173  and  _175
REMARK   65  A    between atoms: _175  and  _176
REMARK   66  A    between atoms: _175  and  _178
REMARK   67  A    between atoms: _178  and  _179
REMARK   68  A    between atoms: _184  and  _186
REMARK   69  A    between atoms: _186  and  _187
REMARK   70  A    between atoms: _186  and  _189
REMARK   71  A    between atoms: _189  and  _190
REMARK   72  A    between atoms: _193  and  _195
REMARK   73  A    between atoms: _195  and  _196
REMARK   74  A    between atoms: _195  and  _198
REMARK   75  A    between atoms: _198  and  _199
REMARK   76  A    between atoms: _204  and  _205
REMARK   77  A    between atoms: _208  and  _209
REMARK   78  A    between atoms: _214  and  _216
REMARK   79  A    between atoms: _216  and  _217
REMARK   80  A    between atoms: _216  and  _219
REMARK   81  A    between atoms: _219  and  _220
REMARK   82  A    between atoms: _230  and  _232
REMARK   83  A    between atoms: _232  and  _233
REMARK   84  A    between atoms: _232  and  _235
REMARK   85  A    between atoms: _235  and  _236
REMARK   86  A    between atoms: _236  and  _237
REMARK   87  A    between atoms: _237  and  _238
REMARK   88  A    between atoms: _247  and  _249
REMARK   89  A    between atoms: _249  and  _250
REMARK   90  A    between atoms: _249  and  _252
REMARK   91  A    between atoms: _252  and  _253
REMARK   92  A    between atoms: _258  and  _260
REMARK   93  A    between atoms: _260  and  _261
REMARK   94  A    between atoms: _260  and  _263
REMARK   95  A    between atoms: _263  and  _264
REMARK   96  A    between atoms: _267  and  _269
REMARK   97  A    between atoms: _269  and  _270
REMARK   98  A    between atoms: _269  and  _272
REMARK   99  A    between atoms: _272  and  _273
REMARK  100  A    between atoms: _283  and  _285
REMARK  101  A    between atoms: _285  and  _286
REMARK  102  A    between atoms: _285  and  _288
REMARK  103  A    between atoms: _288  and  _289
REMARK  104  A    between atoms: _289  and  _290
REMARK  105  A    between atoms: _290  and  _291
REMARK  106  A    between atoms: _300  and  _302
REMARK  107  A    between atoms: _302  and  _303
REMARK  108  A    between atoms: _302  and  _305
REMARK  109  A    between atoms: _305  and  _306
REMARK  110  A    between atoms: _310  and  FE_383
REMARK  111  A    between atoms: _311  and  _313
REMARK  112  A    between atoms: _313  and  _314
REMARK  113  A    between atoms: _313  and  _316
REMARK  114  A    between atoms: _316  and  _317
REMARK  115  A    between atoms: _321  and  FE_383
REMARK  116  A    between atoms: _322  and  _324
REMARK  117  A    between atoms: _324  and  _325
REMARK  118  A    between atoms: _324  and  _327
REMARK  119  A    between atoms: _328  and  _329
REMARK  120  A    between atoms: _334  and  _336
REMARK  121  A    between atoms: _336  and  _337
REMARK  122  A    between atoms: _336  and  _339
REMARK  123  A    between atoms: _339  and  _340
REMARK  124  A    between atoms: _345  and  _346
REMARK  125  A    between atoms: _348  and  _350
REMARK  126  A    between atoms: _350  and  _351
REMARK  127  A    between atoms: _350  and  _353
REMARK  128  A    between atoms: _355  and  _357
REMARK  129  A    between atoms: _357  and  _358
REMARK  130  A    between atoms: _357  and  _360
REMARK  131  A    between atoms: _360  and  _361
REMARK  132  A    between atoms: _364  and  _366
REMARK  133  A    between atoms: _366  and  _367
REMARK  134  A    between atoms: _366  and  _369
REMARK  135  A    between atoms: _369  and  _370
REMARK  136  A    between atoms: _370  and  _371
REMARK  137  A    between atoms: _374  and  _376
REMARK  138  A    between atoms: _376  and  _377
REMARK  139  A    between atoms: _376  and  _379
REMARK  140  A    between atoms: _379  and  _380
REMARK  141  A    between atoms: _380  and  _381
REMARK                            x       y       z     vdW  Elec       q    Type
REMARK                         _______ _______ _______ _____ _____    ______ ____
ROOT
ATOM      1  CA  ILE A   1      14.346  11.303  32.872  0.00  0.00    +0.133 C 
ENDROOT
BRANCH   1   2
ATOM      2  N   ILE A   1      13.156  12.193  32.641  0.00  0.00    -0.239 NA
ATOM      3  H   ILE A   1      12.333  12.146  33.275  0.00  0.00    +0.142 HD
ENDBRANCH   1   2
BRANCH   1   4
ATOM      4  CB  ILE A   1      14.415  10.825  34.342  0.00  0.00    +0.023 C 
ATOM      5  CG2 ILE A   1      15.317   9.627  34.594  0.00  0.00    +0.002 C 
BRANCH   4   6
ATOM      6  CG1 ILE A   1      14.817  12.065  35.249  0.00  0.00    +0.002 C 
ATOM      7  CD1 ILE A   1      14.798  11.616  36.757  0.00  0.00    +0.000 C 
ENDBRANCH   4   6
ENDBRANCH   1   4
BRANCH   1   8
ATOM      8  C   ILE A   1      14.403  10.179  31.845  0.00  0.00    +0.224 C 
ATOM      9  O   ILE A   1      15.478   9.784  31.321  0.00  0.00    -0.287 OA
ENDBRANCH   1   8
TORSDOF 4
REMARK  Name = ../refined-set-2016/3pce/3pce_pocket.pdb
REMARK  141 active torsions:
REMARK  status: ('A' for Active; 'I' for Inactive)
REMARK    1  A    between atoms: _1  and  _3
REMARK    2  A    between atoms: _3  and  _4
REMARK    3  A    between atoms: _3  and  _6
REMARK    4  A    between atoms: _6  and  _7
REMARK    5  A    between atoms: _7  and  _8
REMARK    6  A    between atoms: _13  and  _15
REMARK    7  A    between atoms: _15  and  _16
REMARK    8  A    between atoms: _15  and  _18
REMARK    9  A    between atoms: _18  and  _19
REMARK   10  A    between atoms: _22  and  _24
REMARK   11  A    between atoms: _24  and  _25
REMARK   12  A    between atoms: _28  and  _30
REMARK   13  A    between atoms: _30  and  _31
REMARK   14  A    between atoms: _34  and  _35
REMARK   15  A    between atoms: _40  and  _42
REMARK   16  A    between atoms: _42  and  _43
REMARK   17  A    between atoms: _42  and  _45
REMARK   18  A    between atoms: _45  and  _46
REMARK   19  A    between atoms: _51  and  _52
REMARK   20  A    between atoms: _54  and  _56
REMARK   21  A    between atoms: _56  and  _57
REMARK   22  A    between atoms: _56  and  _59
REMARK   23  A    between atoms: _62  and  _64
REMARK   24  A    between atoms: _64  and  _65
REMARK   25  A    between atoms: _64  and  _67
REMARK   26  A    between atoms: _67  and  _68
REMARK   27  A    between atoms: _71  and  _73
REMARK   28  A    between atoms: _73  and  _74
REMARK   29  A    between atoms: _73  and  _76
REMARK   30  A    between atoms: _76  and  _77
REMARK   31  A    between atoms: _80  and  _82
REMARK   32  A    between atoms: _82  and  _83
REMARK   33  A    between atoms: _82  and  _85
REMARK   34  A    between atoms: _85  and  _86
REMARK   35  A    between atoms: _86  and  _87
REMARK   36  A    between atoms: _87  and  _88
REMARK   37  A    between atoms: _97  and  _99
REMARK   38  A    between atoms: _99  and  _100
REMARK   39  A    between atoms: _102  and  _104
REMARK   40  A    between atoms: _104  and  _105
REMARK   41  A    between atoms: _104  and  _107
REMARK   42  A    between atoms: _107  and  _108
REMARK   43  A    between atoms: _113  and  _114
REMARK   44  A    between atoms: _116  and  _118
REMARK   45  A    between atoms: _118  and  _119
REMARK   46  A    between atoms: _118  and  _121
REMARK   47  A    between atoms: _121  and  _122
REMARK   48  A    between atoms: _125  and  _127
REMARK   49  A    between atoms: _127  and  _128
REMARK   50  A    between atoms: _127  and  _130
REMARK   51  A    between atoms: _130  and  _131
REMARK   52  A    between atoms: _141  and  _143
REMARK   53  A    between atoms: _143  and  _144
REMARK   54  A    between atoms: _143  and  _146
REMARK   55  A    between atoms: _146  and  _147
REMARK   56  A    between atoms: _147  and  _148
REMARK   57  A    between atoms: _153  and  _155
REMARK   58  A    between atoms: _155  and  _156
REMARK   59  A    between atoms: _159  and  _161
REMARK   60  A    between atoms: _161  and  _162
REMARK   61  A    between atoms: _161  and  _164
REMARK   62  A    between atoms: _164  and  _165
REMARK   63  A    between atoms: _170  and  _171
REMARK   64  A    between atoms: _173  and  _175
REMARK   65  A    between atoms: _175  and  _176
REMARK   66  A    between atoms: _175  and  _178
REMARK   67  A    between atoms: _178  and  _179
REMARK   68  A    between atoms: _184  and  _186
REMARK   69  A    between atoms: _186  and  _187
REMARK   70  A    between atoms: _186  and  _189
REMARK   71  A    between atoms: _189  and  _190
REMARK   72  A    between atoms: _193  and  _195
REMARK   73  A    between atoms: _195  and  _196
REMARK   74  A    between atoms: _195  and  _198
REMARK   75  A    between atoms: _198  and  _199
REMARK   76  A    between atoms: _204  and  _205
REMARK   77  A    between atoms: _208  and  _209
REMARK   78  A    between atoms: _214  and  _216
REMARK   79  A    between atoms: _216  and  _217
REMARK   80  A    between atoms: _216  and  _219
REMARK   81  A    between atoms: _219  and  _220
REMARK   82  A    between atoms: _230  and  _232
REMARK   83  A    between atoms: _232  and  _233
REMARK   84  A    between atoms: _232  and  _235
REMARK   85  A    between atoms: _235  and  _236
REMARK   86  A    between atoms: _236  and  _237
REMARK   87  A    between atoms: _237  and  _238
REMARK   88  A    between atoms: _247  and  _249
REMARK   89  A    between atoms: _249  and  _250
REMARK   90  A    between atoms: _249  and  _252
REMARK   91  A    between atoms: _252  and  _253
REMARK   92  A    between atoms: _258  and  _260
REMARK   93  A    between atoms: _260  and  _261
REMARK   94  A    between atoms: _260  and  _263
REMARK   95  A    between atoms: _263  and  _264
REMARK   96  A    between atoms: _267  and  _269
REMARK   97  A    between atoms: _269  and  _270
REMARK   98  A    between atoms: _269  and  _272
REMARK   99  A    between atoms: _272  and  _273
REMARK  100  A    between atoms: _283  and  _285
REMARK  101  A    between atoms: _285  and  _286
REMARK  102  A    between atoms: _285  and  _288
REMARK  103  A    between atoms: _288  and  _289
REMARK  104  A    between atoms: _289  and  _290
REMARK  105  A    between atoms: _290  and  _291
REMARK  106  A    between atoms: _300  and  _302
REMARK  107  A    between atoms: _302  and  _303
REMARK  108  A    between atoms: _302  and  _305
REMARK  109  A    between atoms: _305  and  _306
REMARK  110  A    between atoms: _310  and  FE_383
REMARK  111  A    between atoms: _311  and  _313
REMARK  112  A    between atoms: _313  and  _314
REMARK  113  A    between atoms: _313  and  _316
REMARK  114  A    between atoms: _316  and  _317
REMARK  115  A    between atoms: _321  and  FE_383
REMARK  116  A    between atoms: _322  and  _324
REMARK  117  A    between atoms: _324  and  _325
REMARK  118  A    between atoms: _324  and  _327
REMARK  119  A    between atoms: _328  and  _329
REMARK  120  A    between atoms: _334  and  _336
REMARK  121  A    between atoms: _336  and  _337
REMARK  122  A    between atoms: _336  and  _339
REMARK  123  A    between atoms: _339  and  _340
REMARK  124  A    between atoms: _345  and  _346
REMARK  125  A    between atoms: _348  and  _350
REMARK  126  A    between atoms: _350  and  _351
REMARK  127  A    between atoms: _350  and  _353
REMARK  128  A    between atoms: _355  and  _357
REMARK  129  A    between atoms: _357  and  _358
REMARK  130  A    between atoms: _357  and  _360
REMARK  131  A    between atoms: _360  and  _361
REMARK  132  A    between atoms: _364  and  _366
REMARK  133  A    between atoms: _366  and  _367
REMARK  134  A    between atoms: _366  and  _369
REMARK  135  A    between atoms: _369  and  _370
REMARK  136  A    between atoms: _370  and  _371
REMARK  137  A    between atoms: _374  and  _376
REMARK  138  A    between atoms: _376  and  _377
REMARK  139  A    between atoms: _376  and  _379
REMARK  140  A    between atoms: _379  and  _380
REMARK  141  A    between atoms: _380  and  _381
REMARK                            x       y       z     vdW  Elec       q    Type
REMARK                         _______ _______ _______ _____ _____    ______ ____
ROOT
ATOM      1  CA  GLU A   1      17.419  25.389  46.242  0.00  0.00    +0.000 C 
ENDROOT
BRANCH   1   2
ATOM      2  N   GLU A   1      16.447  26.271  45.663  0.00  0.00    +0.000 NA
ATOM      3  H   GLU A   1      16.063  26.021  44.729  0.00  0.00    +0.000 HD
ENDBRANCH   1   2
BRANCH   1   4
ATOM      4  C   GLU A   1      18.646  26.083  46.813  0.00  0.00    +0.000 C 
ATOM      5  O   GLU A   1      18.966  25.772  47.968  0.00  0.00    +0.000 OA
ENDBRANCH   1   4
BRANCH   1   6
ATOM      6  CB  GLU A   1      17.952  24.303  45.350  0.00  0.00    +0.000 C 
BRANCH   6   7
ATOM      7  CG  GLU A   1      17.093  23.082  45.039  0.00  0.00    +0.000 C 
BRANCH   7   8
ATOM      8  CD  GLU A   1      18.011  21.916  44.626  0.00  0.00    +0.000 C 
ATOM      9  OE2 GLU A   1      18.997  21.653  45.289  0.00  0.00    +0.000 OA
ATOM     10  OE1 GLU A   1      17.600  21.395  43.560  0.00  0.00    +0.000 OA
ENDBRANCH   7   8
ENDBRANCH   6   7
ENDBRANCH   1   6
TORSDOF 5
REMARK  Name = ../refined-set-2016/3pce/3pce_pocket.pdb
REMARK  141 active torsions:
REMARK  status: ('A' for Active; 'I' for Inactive)
REMARK    1  A    between atoms: _1  and  _3
REMARK    2  A    between atoms: _3  and  _4
REMARK    3  A    between atoms: _3  and  _6
REMARK    4  A    between atoms: _6  and  _7
REMARK    5  A    between atoms: _7  and  _8
REMARK    6  A    between atoms: _13  and  _15
REMARK    7  A    between atoms: _15  and  _16
REMARK    8  A    between atoms: _15  and  _18
REMARK    9  A    between atoms: _18  and  _19
REMARK   10  A    between atoms: _22  and  _24
REMARK   11  A    between atoms: _24  and  _25
REMARK   12  A    between atoms: _28  and  _30
REMARK   13  A    between atoms: _30  and  _31
REMARK   14  A    between atoms: _34  and  _35
REMARK   15  A    between atoms: _40  and  _42
REMARK   16  A    between atoms: _42  and  _43
REMARK   17  A    between atoms: _42  and  _45
REMARK   18  A    between atoms: _45  and  _46
REMARK   19  A    between atoms: _51  and  _52
REMARK   20  A    between atoms: _54  and  _56
REMARK   21  A    between atoms: _56  and  _57
REMARK   22  A    between atoms: _56  and  _59
REMARK   23  A    between atoms: _62  and  _64
REMARK   24  A    between atoms: _64  and  _65
REMARK   25  A    between atoms: _64  and  _67
REMARK   26  A    between atoms: _67  and  _68
REMARK   27  A    between atoms: _71  and  _73
REMARK   28  A    between atoms: _73  and  _74
REMARK   29  A    between atoms: _73  and  _76
REMARK   30  A    between atoms: _76  and  _77
REMARK   31  A    between atoms: _80  and  _82
REMARK   32  A    between atoms: _82  and  _83
REMARK   33  A    between atoms: _82  and  _85
REMARK   34  A    between atoms: _85  and  _86
REMARK   35  A    between atoms: _86  and  _87
REMARK   36  A    between atoms: _87  and  _88
REMARK   37  A    between atoms: _97  and  _99
REMARK   38  A    between atoms: _99  and  _100
REMARK   39  A    between atoms: _102  and  _104
REMARK   40  A    between atoms: _104  and  _105
REMARK   41  A    between atoms: _104  and  _107
REMARK   42  A    between atoms: _107  and  _108
REMARK   43  A    between atoms: _113  and  _114
REMARK   44  A    between atoms: _116  and  _118
REMARK   45  A    between atoms: _118  and  _119
REMARK   46  A    between atoms: _118  and  _121
REMARK   47  A    between atoms: _121  and  _122
REMARK   48  A    between atoms: _125  and  _127
REMARK   49  A    between atoms: _127  and  _128
REMARK   50  A    between atoms: _127  and  _130
REMARK   51  A    between atoms: _130  and  _131
REMARK   52  A    between atoms: _141  and  _143
REMARK   53  A    between atoms: _143  and  _144
REMARK   54  A    between atoms: _143  and  _146
REMARK   55  A    between atoms: _146  and  _147
REMARK   56  A    between atoms: _147  and  _148
REMARK   57  A    between atoms: _153  and  _155
REMARK   58  A    between atoms: _155  and  _156
REMARK   59  A    between atoms: _159  and  _161
REMARK   60  A    between atoms: _161  and  _162
REMARK   61  A    between atoms: _161  and  _164
REMARK   62  A    between atoms: _164  and  _165
REMARK   63  A    between atoms: _170  and  _171
REMARK   64  A    between atoms: _173  and  _175
REMARK   65  A    between atoms: _175  and  _176
REMARK   66  A    between atoms: _175  and  _178
REMARK   67  A    between atoms: _178  and  _179
REMARK   68  A    between atoms: _184  and  _186
REMARK   69  A    between atoms: _186  and  _187
REMARK   70  A    between atoms: _186  and  _189
REMARK   71  A    between atoms: _189  and  _190
REMARK   72  A    between atoms: _193  and  _195
REMARK   73  A    between atoms: _195  and  _196
REMARK   74  A    between atoms: _195  and  _198
REMARK   75  A    between atoms: _198  and  _199
REMARK   76  A    between atoms: _204  and  _205
REMARK   77  A    between atoms: _208  and  _209
REMARK   78  A    between atoms: _214  and  _216
REMARK   79  A    between atoms: _216  and  _217
REMARK   80  A    between atoms: _216  and  _219
REMARK   81  A    between atoms: _219  and  _220
REMARK   82  A    between atoms: _230  and  _232
REMARK   83  A    between atoms: _232  and  _233
REMARK   84  A    between atoms: _232  and  _235
REMARK   85  A    between atoms: _235  and  _236
REMARK   86  A    between atoms: _236  and  _237
REMARK   87  A    between atoms: _237  and  _238
REMARK   88  A    between atoms: _247  and  _249
REMARK   89  A    between atoms: _249  and  _250
REMARK   90  A    between atoms: _249  and  _252
REMARK   91  A    between atoms: _252  and  _253
REMARK   92  A    between atoms: _258  and  _260
REMARK   93  A    between atoms: _260  and  _261
REMARK   94  A    between atoms: _260  and  _263
REMARK   95  A    between atoms: _263  and  _264
REMARK   96  A    between atoms: _267  and  _269
REMARK   97  A    between atoms: _269  and  _270
REMARK   98  A    between atoms: _269  and  _272
REMARK   99  A    between atoms: _272  and  _273
REMARK  100  A    between atoms: _283  and  _285
REMARK  101  A    between atoms: _285  and  _286
REMARK  102  A    between atoms: _285  and  _288
REMARK  103  A    between atoms: _288  and  _289
REMARK  104  A    between atoms: _289  and  _290
REMARK  105  A    between atoms: _290  and  _291
REMARK  106  A    between atoms: _300  and  _302
REMARK  107  A    between atoms: _302  and  _303
REMARK  108  A    between atoms: _302  and  _305
REMARK  109  A    between atoms: _305  and  _306
REMARK  110  A    between atoms: _310  and  FE_383
REMARK  111  A    between atoms: _311  and  _313
REMARK  112  A    between atoms: _313  and  _314
REMARK  113  A    between atoms: _313  and  _316
REMARK  114  A    between atoms: _316  and  _317
REMARK  115  A    between atoms: _321  and  FE_383
REMARK  116  A    between atoms: _322  and  _324
REMARK  117  A    between atoms: _324  and  _325
REMARK  118  A    between atoms: _324  and  _327
REMARK  119  A    between atoms: _328  and  _329
REMARK  120  A    between atoms: _334  and  _336
REMARK  121  A    between atoms: _336  and  _337
REMARK  122  A    between atoms: _336  and  _339
REMARK  123  A    between atoms: _339  and  _340
REMARK  124  A    between atoms: _345  and  _346
REMARK  125  A    between atoms: _348  and  _350
REMARK  126  A    between atoms: _350  and  _351
REMARK  127  A    between atoms: _350  and  _353
REMARK  128  A    between atoms: _355  and  _357
REMARK  129  A    between atoms: _357  and  _358
REMARK  130  A    between atoms: _357  and  _360
REMARK  131  A    between atoms: _360  and  _361
REMARK  132  A    between atoms: _364  and  _366
REMARK  133  A    between atoms: _366  and  _367
REMARK  134  A    between atoms: _366  and  _369
REMARK  135  A    between atoms: _369  and  _370
REMARK  136  A    between atoms: _370  and  _371
REMARK  137  A    between atoms: _374  and  _376
REMARK  138  A    between atoms: _376  and  _377
REMARK  139  A    between atoms: _376  and  _379
REMARK  140  A    between atoms: _379  and  _380
REMARK  141  A    between atoms: _380  and  _381
REMARK                            x       y       z     vdW  Elec       q    Type
REMARK                         _______ _______ _______ _____ _____    ______ ____
ROOT
ATOM      1  CA  MET A   1       3.035  17.060  44.407  0.00  0.00    +0.000 C 
ENDROOT
BRANCH   1   2
ATOM      2  N   MET A   1       2.415  17.438  43.129  0.00  0.00    +0.000 NA
ATOM      3  H   MET A   1       2.794  17.016  42.257  0.00  0.00    +0.000 HD
ENDBRANCH   1   2
BRANCH   1   4
ATOM      4  C   MET A   1       2.012  16.385  45.316  0.00  0.00    +0.000 C 
ATOM      5  O   MET A   1       2.286  16.287  46.528  0.00  0.00    +0.000 OA
ENDBRANCH   1   4
BRANCH   1   6
ATOM      6  CB  MET A   1       3.665  18.254  45.112  0.00  0.00    +0.000 C 
BRANCH   6   7
ATOM      7  CG  MET A   1       4.656  19.061  44.331  0.00  0.00    +0.000 C 
BRANCH   7   8
ATOM      8  SD  MET A   1       6.073  17.920  43.874  0.00  0.00    +0.000 S 
ATOM      9  CE  MET A   1       6.241  17.048  45.408  0.00  0.00    +0.000 C 
ENDBRANCH   7   8
ENDBRANCH   6   7
ENDBRANCH   1   6
TORSDOF 5
REMARK  Name = ../refined-set-2016/3pce/3pce_pocket.pdb
REMARK  141 active torsions:
REMARK  status: ('A' for Active; 'I' for Inactive)
REMARK    1  A    between atoms: _1  and  _3
REMARK    2  A    between atoms: _3  and  _4
REMARK    3  A    between atoms: _3  and  _6
REMARK    4  A    between atoms: _6  and  _7
REMARK    5  A    between atoms: _7  and  _8
REMARK    6  A    between atoms: _13  and  _15
REMARK    7  A    between atoms: _15  and  _16
REMARK    8  A    between atoms: _15  and  _18
REMARK    9  A    between atoms: _18  and  _19
REMARK   10  A    between atoms: _22  and  _24
REMARK   11  A    between atoms: _24  and  _25
REMARK   12  A    between atoms: _28  and  _30
REMARK   13  A    between atoms: _30  and  _31
REMARK   14  A    between atoms: _34  and  _35
REMARK   15  A    between atoms: _40  and  _42
REMARK   16  A    between atoms: _42  and  _43
REMARK   17  A    between atoms: _42  and  _45
REMARK   18  A    between atoms: _45  and  _46
REMARK   19  A    between atoms: _51  and  _52
REMARK   20  A    between atoms: _54  and  _56
REMARK   21  A    between atoms: _56  and  _57
REMARK   22  A    between atoms: _56  and  _59
REMARK   23  A    between atoms: _62  and  _64
REMARK   24  A    between atoms: _64  and  _65
REMARK   25  A    between atoms: _64  and  _67
REMARK   26  A    between atoms: _67  and  _68
REMARK   27  A    between atoms: _71  and  _73
REMARK   28  A    between atoms: _73  and  _74
REMARK   29  A    between atoms: _73  and  _76
REMARK   30  A    between atoms: _76  and  _77
REMARK   31  A    between atoms: _80  and  _82
REMARK   32  A    between atoms: _82  and  _83
REMARK   33  A    between atoms: _82  and  _85
REMARK   34  A    between atoms: _85  and  _86
REMARK   35  A    between atoms: _86  and  _87
REMARK   36  A    between atoms: _87  and  _88
REMARK   37  A    between atoms: _97  and  _99
REMARK   38  A    between atoms: _99  and  _100
REMARK   39  A    between atoms: _102  and  _104
REMARK   40  A    between atoms: _104  and  _105
REMARK   41  A    between atoms: _104  and  _107
REMARK   42  A    between atoms: _107  and  _108
REMARK   43  A    between atoms: _113  and  _114
REMARK   44  A    between atoms: _116  and  _118
REMARK   45  A    between atoms: _118  and  _119
REMARK   46  A    between atoms: _118  and  _121
REMARK   47  A    between atoms: _121  and  _122
REMARK   48  A    between atoms: _125  and  _127
REMARK   49  A    between atoms: _127  and  _128
REMARK   50  A    between atoms: _127  and  _130
REMARK   51  A    between atoms: _130  and  _131
REMARK   52  A    between atoms: _141  and  _143
REMARK   53  A    between atoms: _143  and  _144
REMARK   54  A    between atoms: _143  and  _146
REMARK   55  A    between atoms: _146  and  _147
REMARK   56  A    between atoms: _147  and  _148
REMARK   57  A    between atoms: _153  and  _155
REMARK   58  A    between atoms: _155  and  _156
REMARK   59  A    between atoms: _159  and  _161
REMARK   60  A    between atoms: _161  and  _162
REMARK   61  A    between atoms: _161  and  _164
REMARK   62  A    between atoms: _164  and  _165
REMARK   63  A    between atoms: _170  and  _171
REMARK   64  A    between atoms: _173  and  _175
REMARK   65  A    between atoms: _175  and  _176
REMARK   66  A    between atoms: _175  and  _178
REMARK   67  A    between atoms: _178  and  _179
REMARK   68  A    between atoms: _184  and  _186
REMARK   69  A    between atoms: _186  and  _187
REMARK   70  A    between atoms: _186  and  _189
REMARK   71  A    between atoms: _189  and  _190
REMARK   72  A    between atoms: _193  and  _195
REMARK   73  A    between atoms: _195  and  _196
REMARK   74  A    between atoms: _195  and  _198
REMARK   75  A    between atoms: _198  and  _199
REMARK   76  A    between atoms: _204  and  _205
REMARK   77  A    between atoms: _208  and  _209
REMARK   78  A    between atoms: _214  and  _216
REMARK   79  A    between atoms: _216  and  _217
REMARK   80  A    between atoms: _216  and  _219
REMARK   81  A    between atoms: _219  and  _220
REMARK   82  A    between atoms: _230  and  _232
REMARK   83  A    between atoms: _232  and  _233
REMARK   84  A    between atoms: _232  and  _235
REMARK   85  A    between atoms: _235  and  _236
REMARK   86  A    between atoms: _236  and  _237
REMARK   87  A    between atoms: _237  and  _238
REMARK   88  A    between atoms: _247  and  _249
REMARK   89  A    between atoms: _249  and  _250
REMARK   90  A    between atoms: _249  and  _252
REMARK   91  A    between atoms: _252  and  _253
REMARK   92  A    between atoms: _258  and  _260
REMARK   93  A    between atoms: _260  and  _261
REMARK   94  A    between atoms: _260  and  _263
REMARK   95  A    between atoms: _263  and  _264
REMARK   96  A    between atoms: _267  and  _269
REMARK   97  A    between atoms: _269  and  _270
REMARK   98  A    between atoms: _269  and  _272
REMARK   99  A    between atoms: _272  and  _273
REMARK  100  A    between atoms: _283  and  _285
REMARK  101  A    between atoms: _285  and  _286
REMARK  102  A    between atoms: _285  and  _288
REMARK  103  A    between atoms: _288  and  _289
REMARK  104  A    between atoms: _289  and  _290
REMARK  105  A    between atoms: _290  and  _291
REMARK  106  A    between atoms: _300  and  _302
REMARK  107  A    between atoms: _302  and  _303
REMARK  108  A    between atoms: _302  and  _305
REMARK  109  A    between atoms: _305  and  _306
REMARK  110  A    between atoms: _310  and  FE_383
REMARK  111  A    between atoms: _311  and  _313
REMARK  112  A    between atoms: _313  and  _314
REMARK  113  A    between atoms: _313  and  _316
REMARK  114  A    between atoms: _316  and  _317
REMARK  115  A    between atoms: _321  and  FE_383
REMARK  116  A    between atoms: _322  and  _324
REMARK  117  A    between atoms: _324  and  _325
REMARK  118  A    between atoms: _324  and  _327
REMARK  119  A    between atoms: _328  and  _329
REMARK  120  A    between atoms: _334  and  _336
REMARK  121  A    between atoms: _336  and  _337
REMARK  122  A    between atoms: _336  and  _339
REMARK  123  A    between atoms: _339  and  _340
REMARK  124  A    between atoms: _345  and  _346
REMARK  125  A    between atoms: _348  and  _350
REMARK  126  A    between atoms: _350  and  _351
REMARK  127  A    between atoms: _350  and  _353
REMARK  128  A    between atoms: _355  and  _357
REMARK  129  A    between atoms: _357  and  _358
REMARK  130  A    between atoms: _357  and  _360
REMARK  131  A    between atoms: _360  and  _361
REMARK  132  A    between atoms: _364  and  _366
REMARK  133  A    between atoms: _366  and  _367
REMARK  134  A    between atoms: _366  and  _369
REMARK  135  A    between atoms: _369  and  _370
REMARK  136  A    between atoms: _370  and  _371
REMARK  137  A    between atoms: _374  and  _376
REMARK  138  A    between atoms: _376  and  _377
REMARK  139  A    between atoms: _376  and  _379
REMARK  140  A    between atoms: _379  and  _380
REMARK  141  A    between atoms: _380  and  _381
REMARK                            x       y       z     vdW  Elec       q    Type
REMARK                         _______ _______ _______ _____ _____    ______ ____
ROOT
ATOM      1  O   HOH     1      17.158   7.501  43.978  0.00  0.00    +0.000 OA
ENDROOT
TORSDOF 0
REMARK  Name = ../refined-set-2016/3pce/3pce_pocket.pdb
REMARK  141 active torsions:
REMARK  status: ('A' for Active; 'I' for Inactive)
REMARK    1  A    between atoms: _1  and  _3
REMARK    2  A    between atoms: _3  and  _4
REMARK    3  A    between atoms: _3  and  _6
REMARK    4  A    between atoms: _6  and  _7
REMARK    5  A    between atoms: _7  and  _8
REMARK    6  A    between atoms: _13  and  _15
REMARK    7  A    between atoms: _15  and  _16
REMARK    8  A    between atoms: _15  and  _18
REMARK    9  A    between atoms: _18  and  _19
REMARK   10  A    between atoms: _22  and  _24
REMARK   11  A    between atoms: _24  and  _25
REMARK   12  A    between atoms: _28  and  _30
REMARK   13  A    between atoms: _30  and  _31
REMARK   14  A    between atoms: _34  and  _35
REMARK   15  A    between atoms: _40  and  _42
REMARK   16  A    between atoms: _42  and  _43
REMARK   17  A    between atoms: _42  and  _45
REMARK   18  A    between atoms: _45  and  _46
REMARK   19  A    between atoms: _51  and  _52
REMARK   20  A    between atoms: _54  and  _56
REMARK   21  A    between atoms: _56  and  _57
REMARK   22  A    between atoms: _56  and  _59
REMARK   23  A    between atoms: _62  and  _64
REMARK   24  A    between atoms: _64  and  _65
REMARK   25  A    between atoms: _64  and  _67
REMARK   26  A    between atoms: _67  and  _68
REMARK   27  A    between atoms: _71  and  _73
REMARK   28  A    between atoms: _73  and  _74
REMARK   29  A    between atoms: _73  and  _76
REMARK   30  A    between atoms: _76  and  _77
REMARK   31  A    between atoms: _80  and  _82
REMARK   32  A    between atoms: _82  and  _83
REMARK   33  A    between atoms: _82  and  _85
REMARK   34  A    between atoms: _85  and  _86
REMARK   35  A    between atoms: _86  and  _87
REMARK   36  A    between atoms: _87  and  _88
REMARK   37  A    between atoms: _97  and  _99
REMARK   38  A    between atoms: _99  and  _100
REMARK   39  A    between atoms: _102  and  _104
REMARK   40  A    between atoms: _104  and  _105
REMARK   41  A    between atoms: _104  and  _107
REMARK   42  A    between atoms: _107  and  _108
REMARK   43  A    between atoms: _113  and  _114
REMARK   44  A    between atoms: _116  and  _118
REMARK   45  A    between atoms: _118  and  _119
REMARK   46  A    between atoms: _118  and  _121
REMARK   47  A    between atoms: _121  and  _122
REMARK   48  A    between atoms: _125  and  _127
REMARK   49  A    between atoms: _127  and  _128
REMARK   50  A    between atoms: _127  and  _130
REMARK   51  A    between atoms: _130  and  _131
REMARK   52  A    between atoms: _141  and  _143
REMARK   53  A    between atoms: _143  and  _144
REMARK   54  A    between atoms: _143  and  _146
REMARK   55  A    between atoms: _146  and  _147
REMARK   56  A    between atoms: _147  and  _148
REMARK   57  A    between atoms: _153  and  _155
REMARK   58  A    between atoms: _155  and  _156
REMARK   59  A    between atoms: _159  and  _161
REMARK   60  A    between atoms: _161  and  _162
REMARK   61  A    between atoms: _161  and  _164
REMARK   62  A    between atoms: _164  and  _165
REMARK   63  A    between atoms: _170  and  _171
REMARK   64  A    between atoms: _173  and  _175
REMARK   65  A    between atoms: _175  and  _176
REMARK   66  A    between atoms: _175  and  _178
REMARK   67  A    between atoms: _178  and  _179
REMARK   68  A    between atoms: _184  and  _186
REMARK   69  A    between atoms: _186  and  _187
REMARK   70  A    between atoms: _186  and  _189
REMARK   71  A    between atoms: _189  and  _190
REMARK   72  A    between atoms: _193  and  _195
REMARK   73  A    between atoms: _195  and  _196
REMARK   74  A    between atoms: _195  and  _198
REMARK   75  A    between atoms: _198  and  _199
REMARK   76  A    between atoms: _204  and  _205
REMARK   77  A    between atoms: _208  and  _209
REMARK   78  A    between atoms: _214  and  _216
REMARK   79  A    between atoms: _216  and  _217
REMARK   80  A    between atoms: _216  and  _219
REMARK   81  A    between atoms: _219  and  _220
REMARK   82  A    between atoms: _230  and  _232
REMARK   83  A    between atoms: _232  and  _233
REMARK   84  A    between atoms: _232  and  _235
REMARK   85  A    between atoms: _235  and  _236
REMARK   86  A    between atoms: _236  and  _237
REMARK   87  A    between atoms: _237  and  _238
REMARK   88  A    between atoms: _247  and  _249
REMARK   89  A    between atoms: _249  and  _250
REMARK   90  A    between atoms: _249  and  _252
REMARK   91  A    between atoms: _252  and  _253
REMARK   92  A    between atoms: _258  and  _260
REMARK   93  A    between atoms: _260  and  _261
REMARK   94  A    between atoms: _260  and  _263
REMARK   95  A    between atoms: _263  and  _264
REMARK   96  A    between atoms: _267  and  _269
REMARK   97  A    between atoms: _269  and  _270
REMARK   98  A    between atoms: _269  and  _272
REMARK   99  A    between atoms: _272  and  _273
REMARK  100  A    between atoms: _283  and  _285
REMARK  101  A    between atoms: _285  and  _286
REMARK  102  A    between atoms: _285  and  _288
REMARK  103  A    between atoms: _288  and  _289
REMARK  104  A    between atoms: _289  and  _290
REMARK  105  A    between atoms: _290  and  _291
REMARK  106  A    between atoms: _300  and  _302
REMARK  107  A    between atoms: _302  and  _303
REMARK  108  A    between atoms: _302  and  _305
REMARK  109  A    between atoms: _305  and  _306
REMARK  110  A    between atoms: _310  and  FE_383
REMARK  111  A    between atoms: _311  and  _313
REMARK  112  A    between atoms: _313  and  _314
REMARK  113  A    between atoms: _313  and  _316
REMARK  114  A    between atoms: _316  and  _317
REMARK  115  A    between atoms: _321  and  FE_383
REMARK  116  A    between atoms: _322  and  _324
REMARK  117  A    between atoms: _324  and  _325
REMARK  118  A    between atoms: _324  and  _327
REMARK  119  A    between atoms: _328  and  _329
REMARK  120  A    between atoms: _334  and  _336
REMARK  121  A    between atoms: _336  and  _337
REMARK  122  A    between atoms: _336  and  _339
REMARK  123  A    between atoms: _339  and  _340
REMARK  124  A    between atoms: _345  and  _346
REMARK  125  A    between atoms: _348  and  _350
REMARK  126  A    between atoms: _350  and  _351
REMARK  127  A    between atoms: _350  and  _353
REMARK  128  A    between atoms: _355  and  _357
REMARK  129  A    between atoms: _357  and  _358
REMARK  130  A    between atoms: _357  and  _360
REMARK  131  A    between atoms: _360  and  _361
REMARK  132  A    between atoms: _364  and  _366
REMARK  133  A    between atoms: _366  and  _367
REMARK  134  A    between atoms: _366  and  _369
REMARK  135  A    between atoms: _369  and  _370
REMARK  136  A    between atoms: _370  and  _371
REMARK  137  A    between atoms: _374  and  _376
REMARK  138  A    between atoms: _376  and  _377
REMARK  139  A    between atoms: _376  and  _379
REMARK  140  A    between atoms: _379  and  _380
REMARK  141  A    between atoms: _380  and  _381
REMARK                            x       y       z     vdW  Elec       q    Type
REMARK                         _______ _______ _______ _____ _____    ______ ____
ROOT
ATOM      1  O   HOH     1      22.009  11.918  44.326  0.00  0.00    +0.000 OA
ENDROOT
TORSDOF 0
REMARK  Name = ../refined-set-2016/3pce/3pce_pocket.pdb
REMARK  141 active torsions:
REMARK  status: ('A' for Active; 'I' for Inactive)
REMARK    1  A    between atoms: _1  and  _3
REMARK    2  A    between atoms: _3  and  _4
REMARK    3  A    between atoms: _3  and  _6
REMARK    4  A    between atoms: _6  and  _7
REMARK    5  A    between atoms: _7  and  _8
REMARK    6  A    between atoms: _13  and  _15
REMARK    7  A    between atoms: _15  and  _16
REMARK    8  A    between atoms: _15  and  _18
REMARK    9  A    between atoms: _18  and  _19
REMARK   10  A    between atoms: _22  and  _24
REMARK   11  A    between atoms: _24  and  _25
REMARK   12  A    between atoms: _28  and  _30
REMARK   13  A    between atoms: _30  and  _31
REMARK   14  A    between atoms: _34  and  _35
REMARK   15  A    between atoms: _40  and  _42
REMARK   16  A    between atoms: _42  and  _43
REMARK   17  A    between atoms: _42  and  _45
REMARK   18  A    between atoms: _45  and  _46
REMARK   19  A    between atoms: _51  and  _52
REMARK   20  A    between atoms: _54  and  _56
REMARK   21  A    between atoms: _56  and  _57
REMARK   22  A    between atoms: _56  and  _59
REMARK   23  A    between atoms: _62  and  _64
REMARK   24  A    between atoms: _64  and  _65
REMARK   25  A    between atoms: _64  and  _67
REMARK   26  A    between atoms: _67  and  _68
REMARK   27  A    between atoms: _71  and  _73
REMARK   28  A    between atoms: _73  and  _74
REMARK   29  A    between atoms: _73  and  _76
REMARK   30  A    between atoms: _76  and  _77
REMARK   31  A    between atoms: _80  and  _82
REMARK   32  A    between atoms: _82  and  _83
REMARK   33  A    between atoms: _82  and  _85
REMARK   34  A    between atoms: _85  and  _86
REMARK   35  A    between atoms: _86  and  _87
REMARK   36  A    between atoms: _87  and  _88
REMARK   37  A    between atoms: _97  and  _99
REMARK   38  A    between atoms: _99  and  _100
REMARK   39  A    between atoms: _102  and  _104
REMARK   40  A    between atoms: _104  and  _105
REMARK   41  A    between atoms: _104  and  _107
REMARK   42  A    between atoms: _107  and  _108
REMARK   43  A    between atoms: _113  and  _114
REMARK   44  A    between atoms: _116  and  _118
REMARK   45  A    between atoms: _118  and  _119
REMARK   46  A    between atoms: _118  and  _121
REMARK   47  A    between atoms: _121  and  _122
REMARK   48  A    between atoms: _125  and  _127
REMARK   49  A    between atoms: _127  and  _128
REMARK   50  A    between atoms: _127  and  _130
REMARK   51  A    between atoms: _130  and  _131
REMARK   52  A    between atoms: _141  and  _143
REMARK   53  A    between atoms: _143  and  _144
REMARK   54  A    between atoms: _143  and  _146
REMARK   55  A    between atoms: _146  and  _147
REMARK   56  A    between atoms: _147  and  _148
REMARK   57  A    between atoms: _153  and  _155
REMARK   58  A    between atoms: _155  and  _156
REMARK   59  A    between atoms: _159  and  _161
REMARK   60  A    between atoms: _161  and  _162
REMARK   61  A    between atoms: _161  and  _164
REMARK   62  A    between atoms: _164  and  _165
REMARK   63  A    between atoms: _170  and  _171
REMARK   64  A    between atoms: _173  and  _175
REMARK   65  A    between atoms: _175  and  _176
REMARK   66  A    between atoms: _175  and  _178
REMARK   67  A    between atoms: _178  and  _179
REMARK   68  A    between atoms: _184  and  _186
REMARK   69  A    between atoms: _186  and  _187
REMARK   70  A    between atoms: _186  and  _189
REMARK   71  A    between atoms: _189  and  _190
REMARK   72  A    between atoms: _193  and  _195
REMARK   73  A    between atoms: _195  and  _196
REMARK   74  A    between atoms: _195  and  _198
REMARK   75  A    between atoms: _198  and  _199
REMARK   76  A    between atoms: _204  and  _205
REMARK   77  A    between atoms: _208  and  _209
REMARK   78  A    between atoms: _214  and  _216
REMARK   79  A    between atoms: _216  and  _217
REMARK   80  A    between atoms: _216  and  _219
REMARK   81  A    between atoms: _219  and  _220
REMARK   82  A    between atoms: _230  and  _232
REMARK   83  A    between atoms: _232  and  _233
REMARK   84  A    between atoms: _232  and  _235
REMARK   85  A    between atoms: _235  and  _236
REMARK   86  A    between atoms: _236  and  _237
REMARK   87  A    between atoms: _237  and  _238
REMARK   88  A    between atoms: _247  and  _249
REMARK   89  A    between atoms: _249  and  _250
REMARK   90  A    between atoms: _249  and  _252
REMARK   91  A    between atoms: _252  and  _253
REMARK   92  A    between atoms: _258  and  _260
REMARK   93  A    between atoms: _260  and  _261
REMARK   94  A    between atoms: _260  and  _263
REMARK   95  A    between atoms: _263  and  _264
REMARK   96  A    between atoms: _267  and  _269
REMARK   97  A    between atoms: _269  and  _270
REMARK   98  A    between atoms: _269  and  _272
REMARK   99  A    between atoms: _272  and  _273
REMARK  100  A    between atoms: _283  and  _285
REMARK  101  A    between atoms: _285  and  _286
REMARK  102  A    between atoms: _285  and  _288
REMARK  103  A    between atoms: _288  and  _289
REMARK  104  A    between atoms: _289  and  _290
REMARK  105  A    between atoms: _290  and  _291
REMARK  106  A    between atoms: _300  and  _302
REMARK  107  A    between atoms: _302  and  _303
REMARK  108  A    between atoms: _302  and  _305
REMARK  109  A    between atoms: _305  and  _306
REMARK  110  A    between atoms: _310  and  FE_383
REMARK  111  A    between atoms: _311  and  _313
REMARK  112  A    between atoms: _313  and  _314
REMARK  113  A    between atoms: _313  and  _316
REMARK  114  A    between atoms: _316  and  _317
REMARK  115  A    between atoms: _321  and  FE_383
REMARK  116  A    between atoms: _322  and  _324
REMARK  117  A    between atoms: _324  and  _325
REMARK  118  A    between atoms: _324  and  _327
REMARK  119  A    between atoms: _328  and  _329
REMARK  120  A    between atoms: _334  and  _336
REMARK  121  A    between atoms: _336  and  _337
REMARK  122  A    between atoms: _336  and  _339
REMARK  123  A    between atoms: _339  and  _340
REMARK  124  A    between atoms: _345  and  _346
REMARK  125  A    between atoms: _348  and  _350
REMARK  126  A    between atoms: _350  and  _351
REMARK  127  A    between atoms: _350  and  _353
REMARK  128  A    between atoms: _355  and  _357
REMARK  129  A    between atoms: _357  and  _358
REMARK  130  A    between atoms: _357  and  _360
REMARK  131  A    between atoms: _360  and  _361
REMARK  132  A    between atoms: _364  and  _366
REMARK  133  A    between atoms: _366  and  _367
REMARK  134  A    between atoms: _366  and  _369
REMARK  135  A    between atoms: _369  and  _370
REMARK  136  A    between atoms: _370  and  _371
REMARK  137  A    between atoms: _374  and  _376
REMARK  138  A    between atoms: _376  and  _377
REMARK  139  A    between atoms: _376  and  _379
REMARK  140  A    between atoms: _379  and  _380
REMARK  141  A    between atoms: _380  and  _381
REMARK                            x       y       z     vdW  Elec       q    Type
REMARK                         _______ _______ _______ _____ _____    ______ ____
ROOT
ATOM      1  O   HOH     1      18.797   9.594  33.623  0.00  0.00    +0.000 OA
ENDROOT
TORSDOF 0
REMARK  Name = ../refined-set-2016/3pce/3pce_pocket.pdb
REMARK  141 active torsions:
REMARK  status: ('A' for Active; 'I' for Inactive)
REMARK    1  A    between atoms: _1  and  _3
REMARK    2  A    between atoms: _3  and  _4
REMARK    3  A    between atoms: _3  and  _6
REMARK    4  A    between atoms: _6  and  _7
REMARK    5  A    between atoms: _7  and  _8
REMARK    6  A    between atoms: _13  and  _15
REMARK    7  A    between atoms: _15  and  _16
REMARK    8  A    between atoms: _15  and  _18
REMARK    9  A    between atoms: _18  and  _19
REMARK   10  A    between atoms: _22  and  _24
REMARK   11  A    between atoms: _24  and  _25
REMARK   12  A    between atoms: _28  and  _30
REMARK   13  A    between atoms: _30  and  _31
REMARK   14  A    between atoms: _34  and  _35
REMARK   15  A    between atoms: _40  and  _42
REMARK   16  A    between atoms: _42  and  _43
REMARK   17  A    between atoms: _42  and  _45
REMARK   18  A    between atoms: _45  and  _46
REMARK   19  A    between atoms: _51  and  _52
REMARK   20  A    between atoms: _54  and  _56
REMARK   21  A    between atoms: _56  and  _57
REMARK   22  A    between atoms: _56  and  _59
REMARK   23  A    between atoms: _62  and  _64
REMARK   24  A    between atoms: _64  and  _65
REMARK   25  A    between atoms: _64  and  _67
REMARK   26  A    between atoms: _67  and  _68
REMARK   27  A    between atoms: _71  and  _73
REMARK   28  A    between atoms: _73  and  _74
REMARK   29  A    between atoms: _73  and  _76
REMARK   30  A    between atoms: _76  and  _77
REMARK   31  A    between atoms: _80  and  _82
REMARK   32  A    between atoms: _82  and  _83
REMARK   33  A    between atoms: _82  and  _85
REMARK   34  A    between atoms: _85  and  _86
REMARK   35  A    between atoms: _86  and  _87
REMARK   36  A    between atoms: _87  and  _88
REMARK   37  A    between atoms: _97  and  _99
REMARK   38  A    between atoms: _99  and  _100
REMARK   39  A    between atoms: _102  and  _104
REMARK   40  A    between atoms: _104  and  _105
REMARK   41  A    between atoms: _104  and  _107
REMARK   42  A    between atoms: _107  and  _108
REMARK   43  A    between atoms: _113  and  _114
REMARK   44  A    between atoms: _116  and  _118
REMARK   45  A    between atoms: _118  and  _119
REMARK   46  A    between atoms: _118  and  _121
REMARK   47  A    between atoms: _121  and  _122
REMARK   48  A    between atoms: _125  and  _127
REMARK   49  A    between atoms: _127  and  _128
REMARK   50  A    between atoms: _127  and  _130
REMARK   51  A    between atoms: _130  and  _131
REMARK   52  A    between atoms: _141  and  _143
REMARK   53  A    between atoms: _143  and  _144
REMARK   54  A    between atoms: _143  and  _146
REMARK   55  A    between atoms: _146  and  _147
REMARK   56  A    between atoms: _147  and  _148
REMARK   57  A    between atoms: _153  and  _155
REMARK   58  A    between atoms: _155  and  _156
REMARK   59  A    between atoms: _159  and  _161
REMARK   60  A    between atoms: _161  and  _162
REMARK   61  A    between atoms: _161  and  _164
REMARK   62  A    between atoms: _164  and  _165
REMARK   63  A    between atoms: _170  and  _171
REMARK   64  A    between atoms: _173  and  _175
REMARK   65  A    between atoms: _175  and  _176
REMARK   66  A    between atoms: _175  and  _178
REMARK   67  A    between atoms: _178  and  _179
REMARK   68  A    between atoms: _184  and  _186
REMARK   69  A    between atoms: _186  and  _187
REMARK   70  A    between atoms: _186  and  _189
REMARK   71  A    between atoms: _189  and  _190
REMARK   72  A    between atoms: _193  and  _195
REMARK   73  A    between atoms: _195  and  _196
REMARK   74  A    between atoms: _195  and  _198
REMARK   75  A    between atoms: _198  and  _199
REMARK   76  A    between atoms: _204  and  _205
REMARK   77  A    between atoms: _208  and  _209
REMARK   78  A    between atoms: _214  and  _216
REMARK   79  A    between atoms: _216  and  _217
REMARK   80  A    between atoms: _216  and  _219
REMARK   81  A    between atoms: _219  and  _220
REMARK   82  A    between atoms: _230  and  _232
REMARK   83  A    between atoms: _232  and  _233
REMARK   84  A    between atoms: _232  and  _235
REMARK   85  A    between atoms: _235  and  _236
REMARK   86  A    between atoms: _236  and  _237
REMARK   87  A    between atoms: _237  and  _238
REMARK   88  A    between atoms: _247  and  _249
REMARK   89  A    between atoms: _249  and  _250
REMARK   90  A    between atoms: _249  and  _252
REMARK   91  A    between atoms: _252  and  _253
REMARK   92  A    between atoms: _258  and  _260
REMARK   93  A    between atoms: _260  and  _261
REMARK   94  A    between atoms: _260  and  _263
REMARK   95  A    between atoms: _263  and  _264
REMARK   96  A    between atoms: _267  and  _269
REMARK   97  A    between atoms: _269  and  _270
REMARK   98  A    between atoms: _269  and  _272
REMARK   99  A    between atoms: _272  and  _273
REMARK  100  A    between atoms: _283  and  _285
REMARK  101  A    between atoms: _285  and  _286
REMARK  102  A    between atoms: _285  and  _288
REMARK  103  A    between atoms: _288  and  _289
REMARK  104  A    between atoms: _289  and  _290
REMARK  105  A    between atoms: _290  and  _291
REMARK  106  A    between atoms: _300  and  _302
REMARK  107  A    between atoms: _302  and  _303
REMARK  108  A    between atoms: _302  and  _305
REMARK  109  A    between atoms: _305  and  _306
REMARK  110  A    between atoms: _310  and  FE_383
REMARK  111  A    between atoms: _311  and  _313
REMARK  112  A    between atoms: _313  and  _314
REMARK  113  A    between atoms: _313  and  _316
REMARK  114  A    between atoms: _316  and  _317
REMARK  115  A    between atoms: _321  and  FE_383
REMARK  116  A    between atoms: _322  and  _324
REMARK  117  A    between atoms: _324  and  _325
REMARK  118  A    between atoms: _324  and  _327
REMARK  119  A    between atoms: _328  and  _329
REMARK  120  A    between atoms: _334  and  _336
REMARK  121  A    between atoms: _336  and  _337
REMARK  122  A    between atoms: _336  and  _339
REMARK  123  A    between atoms: _339  and  _340
REMARK  124  A    between atoms: _345  and  _346
REMARK  125  A    between atoms: _348  and  _350
REMARK  126  A    between atoms: _350  and  _351
REMARK  127  A    between atoms: _350  and  _353
REMARK  128  A    between atoms: _355  and  _357
REMARK  129  A    between atoms: _357  and  _358
REMARK  130  A    between atoms: _357  and  _360
REMARK  131  A    between atoms: _360  and  _361
REMARK  132  A    between atoms: _364  and  _366
REMARK  133  A    between atoms: _366  and  _367
REMARK  134  A    between atoms: _366  and  _369
REMARK  135  A    between atoms: _369  and  _370
REMARK  136  A    between atoms: _370  and  _371
REMARK  137  A    between atoms: _374  and  _376
REMARK  138  A    between atoms: _376  and  _377
REMARK  139  A    between atoms: _376  and  _379
REMARK  140  A    between atoms: _379  and  _380
REMARK  141  A    between atoms: _380  and  _381
REMARK                            x       y       z     vdW  Elec       q    Type
REMARK                         _______ _______ _______ _____ _____    ______ ____
ROOT
ATOM      1  O   HOH     1      19.448  15.267  47.295  0.00  0.00    +0.000 OA
ENDROOT
TORSDOF 0
REMARK  Name = ../refined-set-2016/3pce/3pce_pocket.pdb
REMARK  141 active torsions:
REMARK  status: ('A' for Active; 'I' for Inactive)
REMARK    1  A    between atoms: _1  and  _3
REMARK    2  A    between atoms: _3  and  _4
REMARK    3  A    between atoms: _3  and  _6
REMARK    4  A    between atoms: _6  and  _7
REMARK    5  A    between atoms: _7  and  _8
REMARK    6  A    between atoms: _13  and  _15
REMARK    7  A    between atoms: _15  and  _16
REMARK    8  A    between atoms: _15  and  _18
REMARK    9  A    between atoms: _18  and  _19
REMARK   10  A    between atoms: _22  and  _24
REMARK   11  A    between atoms: _24  and  _25
REMARK   12  A    between atoms: _28  and  _30
REMARK   13  A    between atoms: _30  and  _31
REMARK   14  A    between atoms: _34  and  _35
REMARK   15  A    between atoms: _40  and  _42
REMARK   16  A    between atoms: _42  and  _43
REMARK   17  A    between atoms: _42  and  _45
REMARK   18  A    between atoms: _45  and  _46
REMARK   19  A    between atoms: _51  and  _52
REMARK   20  A    between atoms: _54  and  _56
REMARK   21  A    between atoms: _56  and  _57
REMARK   22  A    between atoms: _56  and  _59
REMARK   23  A    between atoms: _62  and  _64
REMARK   24  A    between atoms: _64  and  _65
REMARK   25  A    between atoms: _64  and  _67
REMARK   26  A    between atoms: _67  and  _68
REMARK   27  A    between atoms: _71  and  _73
REMARK   28  A    between atoms: _73  and  _74
REMARK   29  A    between atoms: _73  and  _76
REMARK   30  A    between atoms: _76  and  _77
REMARK   31  A    between atoms: _80  and  _82
REMARK   32  A    between atoms: _82  and  _83
REMARK   33  A    between atoms: _82  and  _85
REMARK   34  A    between atoms: _85  and  _86
REMARK   35  A    between atoms: _86  and  _87
REMARK   36  A    between atoms: _87  and  _88
REMARK   37  A    between atoms: _97  and  _99
REMARK   38  A    between atoms: _99  and  _100
REMARK   39  A    between atoms: _102  and  _104
REMARK   40  A    between atoms: _104  and  _105
REMARK   41  A    between atoms: _104  and  _107
REMARK   42  A    between atoms: _107  and  _108
REMARK   43  A    between atoms: _113  and  _114
REMARK   44  A    between atoms: _116  and  _118
REMARK   45  A    between atoms: _118  and  _119
REMARK   46  A    between atoms: _118  and  _121
REMARK   47  A    between atoms: _121  and  _122
REMARK   48  A    between atoms: _125  and  _127
REMARK   49  A    between atoms: _127  and  _128
REMARK   50  A    between atoms: _127  and  _130
REMARK   51  A    between atoms: _130  and  _131
REMARK   52  A    between atoms: _141  and  _143
REMARK   53  A    between atoms: _143  and  _144
REMARK   54  A    between atoms: _143  and  _146
REMARK   55  A    between atoms: _146  and  _147
REMARK   56  A    between atoms: _147  and  _148
REMARK   57  A    between atoms: _153  and  _155
REMARK   58  A    between atoms: _155  and  _156
REMARK   59  A    between atoms: _159  and  _161
REMARK   60  A    between atoms: _161  and  _162
REMARK   61  A    between atoms: _161  and  _164
REMARK   62  A    between atoms: _164  and  _165
REMARK   63  A    between atoms: _170  and  _171
REMARK   64  A    between atoms: _173  and  _175
REMARK   65  A    between atoms: _175  and  _176
REMARK   66  A    between atoms: _175  and  _178
REMARK   67  A    between atoms: _178  and  _179
REMARK   68  A    between atoms: _184  and  _186
REMARK   69  A    between atoms: _186  and  _187
REMARK   70  A    between atoms: _186  and  _189
REMARK   71  A    between atoms: _189  and  _190
REMARK   72  A    between atoms: _193  and  _195
REMARK   73  A    between atoms: _195  and  _196
REMARK   74  A    between atoms: _195  and  _198
REMARK   75  A    between atoms: _198  and  _199
REMARK   76  A    between atoms: _204  and  _205
REMARK   77  A    between atoms: _208  and  _209
REMARK   78  A    between atoms: _214  and  _216
REMARK   79  A    between atoms: _216  and  _217
REMARK   80  A    between atoms: _216  and  _219
REMARK   81  A    between atoms: _219  and  _220
REMARK   82  A    between atoms: _230  and  _232
REMARK   83  A    between atoms: _232  and  _233
REMARK   84  A    between atoms: _232  and  _235
REMARK   85  A    between atoms: _235  and  _236
REMARK   86  A    between atoms: _236  and  _237
REMARK   87  A    between atoms: _237  and  _238
REMARK   88  A    between atoms: _247  and  _249
REMARK   89  A    between atoms: _249  and  _250
REMARK   90  A    between atoms: _249  and  _252
REMARK   91  A    between atoms: _252  and  _253
REMARK   92  A    between atoms: _258  and  _260
REMARK   93  A    between atoms: _260  and  _261
REMARK   94  A    between atoms: _260  and  _263
REMARK   95  A    between atoms: _263  and  _264
REMARK   96  A    between atoms: _267  and  _269
REMARK   97  A    between atoms: _269  and  _270
REMARK   98  A    between atoms: _269  and  _272
REMARK   99  A    between atoms: _272  and  _273
REMARK  100  A    between atoms: _283  and  _285
REMARK  101  A    between atoms: _285  and  _286
REMARK  102  A    between atoms: _285  and  _288
REMARK  103  A    between atoms: _288  and  _289
REMARK  104  A    between atoms: _289  and  _290
REMARK  105  A    between atoms: _290  and  _291
REMARK  106  A    between atoms: _300  and  _302
REMARK  107  A    between atoms: _302  and  _303
REMARK  108  A    between atoms: _302  and  _305
REMARK  109  A    between atoms: _305  and  _306
REMARK  110  A    between atoms: _310  and  FE_383
REMARK  111  A    between atoms: _311  and  _313
REMARK  112  A    between atoms: _313  and  _314
REMARK  113  A    between atoms: _313  and  _316
REMARK  114  A    between atoms: _316  and  _317
REMARK  115  A    between atoms: _321  and  FE_383
REMARK  116  A    between atoms: _322  and  _324
REMARK  117  A    between atoms: _324  and  _325
REMARK  118  A    between atoms: _324  and  _327
REMARK  119  A    between atoms: _328  and  _329
REMARK  120  A    between atoms: _334  and  _336
REMARK  121  A    between atoms: _336  and  _337
REMARK  122  A    between atoms: _336  and  _339
REMARK  123  A    between atoms: _339  and  _340
REMARK  124  A    between atoms: _345  and  _346
REMARK  125  A    between atoms: _348  and  _350
REMARK  126  A    between atoms: _350  and  _351
REMARK  127  A    between atoms: _350  and  _353
REMARK  128  A    between atoms: _355  and  _357
REMARK  129  A    between atoms: _357  and  _358
REMARK  130  A    between atoms: _357  and  _360
REMARK  131  A    between atoms: _360  and  _361
REMARK  132  A    between atoms: _364  and  _366
REMARK  133  A    between atoms: _366  and  _367
REMARK  134  A    between atoms: _366  and  _369
REMARK  135  A    between atoms: _369  and  _370
REMARK  136  A    between atoms: _370  and  _371
REMARK  137  A    between atoms: _374  and  _376
REMARK  138  A    between atoms: _376  and  _377
REMARK  139  A    between atoms: _376  and  _379
REMARK  140  A    between atoms: _379  and  _380
REMARK  141  A    between atoms: _380  and  _381
REMARK                            x       y       z     vdW  Elec       q    Type
REMARK                         _______ _______ _______ _____ _____    ______ ____
ROOT
ATOM      1  O   HOH     1      18.932   4.681  39.347  0.00  0.00    +0.000 OA
ENDROOT
TORSDOF 0
REMARK  Name = ../refined-set-2016/3pce/3pce_pocket.pdb
REMARK  141 active torsions:
REMARK  status: ('A' for Active; 'I' for Inactive)
REMARK    1  A    between atoms: _1  and  _3
REMARK    2  A    between atoms: _3  and  _4
REMARK    3  A    between atoms: _3  and  _6
REMARK    4  A    between atoms: _6  and  _7
REMARK    5  A    between atoms: _7  and  _8
REMARK    6  A    between atoms: _13  and  _15
REMARK    7  A    between atoms: _15  and  _16
REMARK    8  A    between atoms: _15  and  _18
REMARK    9  A    between atoms: _18  and  _19
REMARK   10  A    between atoms: _22  and  _24
REMARK   11  A    between atoms: _24  and  _25
REMARK   12  A    between atoms: _28  and  _30
REMARK   13  A    between atoms: _30  and  _31
REMARK   14  A    between atoms: _34  and  _35
REMARK   15  A    between atoms: _40  and  _42
REMARK   16  A    between atoms: _42  and  _43
REMARK   17  A    between atoms: _42  and  _45
REMARK   18  A    between atoms: _45  and  _46
REMARK   19  A    between atoms: _51  and  _52
REMARK   20  A    between atoms: _54  and  _56
REMARK   21  A    between atoms: _56  and  _57
REMARK   22  A    between atoms: _56  and  _59
REMARK   23  A    between atoms: _62  and  _64
REMARK   24  A    between atoms: _64  and  _65
REMARK   25  A    between atoms: _64  and  _67
REMARK   26  A    between atoms: _67  and  _68
REMARK   27  A    between atoms: _71  and  _73
REMARK   28  A    between atoms: _73  and  _74
REMARK   29  A    between atoms: _73  and  _76
REMARK   30  A    between atoms: _76  and  _77
REMARK   31  A    between atoms: _80  and  _82
REMARK   32  A    between atoms: _82  and  _83
REMARK   33  A    between atoms: _82  and  _85
REMARK   34  A    between atoms: _85  and  _86
REMARK   35  A    between atoms: _86  and  _87
REMARK   36  A    between atoms: _87  and  _88
REMARK   37  A    between atoms: _97  and  _99
REMARK   38  A    between atoms: _99  and  _100
REMARK   39  A    between atoms: _102  and  _104
REMARK   40  A    between atoms: _104  and  _105
REMARK   41  A    between atoms: _104  and  _107
REMARK   42  A    between atoms: _107  and  _108
REMARK   43  A    between atoms: _113  and  _114
REMARK   44  A    between atoms: _116  and  _118
REMARK   45  A    between atoms: _118  and  _119
REMARK   46  A    between atoms: _118  and  _121
REMARK   47  A    between atoms: _121  and  _122
REMARK   48  A    between atoms: _125  and  _127
REMARK   49  A    between atoms: _127  and  _128
REMARK   50  A    between atoms: _127  and  _130
REMARK   51  A    between atoms: _130  and  _131
REMARK   52  A    between atoms: _141  and  _143
REMARK   53  A    between atoms: _143  and  _144
REMARK   54  A    between atoms: _143  and  _146
REMARK   55  A    between atoms: _146  and  _147
REMARK   56  A    between atoms: _147  and  _148
REMARK   57  A    between atoms: _153  and  _155
REMARK   58  A    between atoms: _155  and  _156
REMARK   59  A    between atoms: _159  and  _161
REMARK   60  A    between atoms: _161  and  _162
REMARK   61  A    between atoms: _161  and  _164
REMARK   62  A    between atoms: _164  and  _165
REMARK   63  A    between atoms: _170  and  _171
REMARK   64  A    between atoms: _173  and  _175
REMARK   65  A    between atoms: _175  and  _176
REMARK   66  A    between atoms: _175  and  _178
REMARK   67  A    between atoms: _178  and  _179
REMARK   68  A    between atoms: _184  and  _186
REMARK   69  A    between atoms: _186  and  _187
REMARK   70  A    between atoms: _186  and  _189
REMARK   71  A    between atoms: _189  and  _190
REMARK   72  A    between atoms: _193  and  _195
REMARK   73  A    between atoms: _195  and  _196
REMARK   74  A    between atoms: _195  and  _198
REMARK   75  A    between atoms: _198  and  _199
REMARK   76  A    between atoms: _204  and  _205
REMARK   77  A    between atoms: _208  and  _209
REMARK   78  A    between atoms: _214  and  _216
REMARK   79  A    between atoms: _216  and  _217
REMARK   80  A    between atoms: _216  and  _219
REMARK   81  A    between atoms: _219  and  _220
REMARK   82  A    between atoms: _230  and  _232
REMARK   83  A    between atoms: _232  and  _233
REMARK   84  A    between atoms: _232  and  _235
REMARK   85  A    between atoms: _235  and  _236
REMARK   86  A    between atoms: _236  and  _237
REMARK   87  A    between atoms: _237  and  _238
REMARK   88  A    between atoms: _247  and  _249
REMARK   89  A    between atoms: _249  and  _250
REMARK   90  A    between atoms: _249  and  _252
REMARK   91  A    between atoms: _252  and  _253
REMARK   92  A    between atoms: _258  and  _260
REMARK   93  A    between atoms: _260  and  _261
REMARK   94  A    between atoms: _260  and  _263
REMARK   95  A    between atoms: _263  and  _264
REMARK   96  A    between atoms: _267  and  _269
REMARK   97  A    between atoms: _269  and  _270
REMARK   98  A    between atoms: _269  and  _272
REMARK   99  A    between atoms: _272  and  _273
REMARK  100  A    between atoms: _283  and  _285
REMARK  101  A    between atoms: _285  and  _286
REMARK  102  A    between atoms: _285  and  _288
REMARK  103  A    between atoms: _288  and  _289
REMARK  104  A    between atoms: _289  and  _290
REMARK  105  A    between atoms: _290  and  _291
REMARK  106  A    between atoms: _300  and  _302
REMARK  107  A    between atoms: _302  and  _303
REMARK  108  A    between atoms: _302  and  _305
REMARK  109  A    between atoms: _305  and  _306
REMARK  110  A    between atoms: _310  and  FE_383
REMARK  111  A    between atoms: _311  and  _313
REMARK  112  A    between atoms: _313  and  _314
REMARK  113  A    between atoms: _313  and  _316
REMARK  114  A    between atoms: _316  and  _317
REMARK  115  A    between atoms: _321  and  FE_383
REMARK  116  A    between atoms: _322  and  _324
REMARK  117  A    between atoms: _324  and  _325
REMARK  118  A    between atoms: _324  and  _327
REMARK  119  A    between atoms: _328  and  _329
REMARK  120  A    between atoms: _334  and  _336
REMARK  121  A    between atoms: _336  and  _337
REMARK  122  A    between atoms: _336  and  _339
REMARK  123  A    between atoms: _339  and  _340
REMARK  124  A    between atoms: _345  and  _346
REMARK  125  A    between atoms: _348  and  _350
REMARK  126  A    between atoms: _350  and  _351
REMARK  127  A    between atoms: _350  and  _353
REMARK  128  A    between atoms: _355  and  _357
REMARK  129  A    between atoms: _357  and  _358
REMARK  130  A    between atoms: _357  and  _360
REMARK  131  A    between atoms: _360  and  _361
REMARK  132  A    between atoms: _364  and  _366
REMARK  133  A    between atoms: _366  and  _367
REMARK  134  A    between atoms: _366  and  _369
REMARK  135  A    between atoms: _369  and  _370
REMARK  136  A    between atoms: _370  and  _371
REMARK  137  A    between atoms: _374  and  _376
REMARK  138  A    between atoms: _376  and  _377
REMARK  139  A    between atoms: _376  and  _379
REMARK  140  A    between atoms: _379  and  _380
REMARK  141  A    between atoms: _380  and  _381
REMARK                            x       y       z     vdW  Elec       q    Type
REMARK                         _______ _______ _______ _____ _____    ______ ____
ROOT
ATOM      1  O   HOH     1       8.795  12.572  35.588  0.00  0.00    +0.000 OA
ENDROOT
TORSDOF 0
REMARK  Name = ../refined-set-2016/3pce/3pce_pocket.pdb
REMARK  141 active torsions:
REMARK  status: ('A' for Active; 'I' for Inactive)
REMARK    1  A    between atoms: _1  and  _3
REMARK    2  A    between atoms: _3  and  _4
REMARK    3  A    between atoms: _3  and  _6
REMARK    4  A    between atoms: _6  and  _7
REMARK    5  A    between atoms: _7  and  _8
REMARK    6  A    between atoms: _13  and  _15
REMARK    7  A    between atoms: _15  and  _16
REMARK    8  A    between atoms: _15  and  _18
REMARK    9  A    between atoms: _18  and  _19
REMARK   10  A    between atoms: _22  and  _24
REMARK   11  A    between atoms: _24  and  _25
REMARK   12  A    between atoms: _28  and  _30
REMARK   13  A    between atoms: _30  and  _31
REMARK   14  A    between atoms: _34  and  _35
REMARK   15  A    between atoms: _40  and  _42
REMARK   16  A    between atoms: _42  and  _43
REMARK   17  A    between atoms: _42  and  _45
REMARK   18  A    between atoms: _45  and  _46
REMARK   19  A    between atoms: _51  and  _52
REMARK   20  A    between atoms: _54  and  _56
REMARK   21  A    between atoms: _56  and  _57
REMARK   22  A    between atoms: _56  and  _59
REMARK   23  A    between atoms: _62  and  _64
REMARK   24  A    between atoms: _64  and  _65
REMARK   25  A    between atoms: _64  and  _67
REMARK   26  A    between atoms: _67  and  _68
REMARK   27  A    between atoms: _71  and  _73
REMARK   28  A    between atoms: _73  and  _74
REMARK   29  A    between atoms: _73  and  _76
REMARK   30  A    between atoms: _76  and  _77
REMARK   31  A    between atoms: _80  and  _82
REMARK   32  A    between atoms: _82  and  _83
REMARK   33  A    between atoms: _82  and  _85
REMARK   34  A    between atoms: _85  and  _86
REMARK   35  A    between atoms: _86  and  _87
REMARK   36  A    between atoms: _87  and  _88
REMARK   37  A    between atoms: _97  and  _99
REMARK   38  A    between atoms: _99  and  _100
REMARK   39  A    between atoms: _102  and  _104
REMARK   40  A    between atoms: _104  and  _105
REMARK   41  A    between atoms: _104  and  _107
REMARK   42  A    between atoms: _107  and  _108
REMARK   43  A    between atoms: _113  and  _114
REMARK   44  A    between atoms: _116  and  _118
REMARK   45  A    between atoms: _118  and  _119
REMARK   46  A    between atoms: _118  and  _121
REMARK   47  A    between atoms: _121  and  _122
REMARK   48  A    between atoms: _125  and  _127
REMARK   49  A    between atoms: _127  and  _128
REMARK   50  A    between atoms: _127  and  _130
REMARK   51  A    between atoms: _130  and  _131
REMARK   52  A    between atoms: _141  and  _143
REMARK   53  A    between atoms: _143  and  _144
REMARK   54  A    between atoms: _143  and  _146
REMARK   55  A    between atoms: _146  and  _147
REMARK   56  A    between atoms: _147  and  _148
REMARK   57  A    between atoms: _153  and  _155
REMARK   58  A    between atoms: _155  and  _156
REMARK   59  A    between atoms: _159  and  _161
REMARK   60  A    between atoms: _161  and  _162
REMARK   61  A    between atoms: _161  and  _164
REMARK   62  A    between atoms: _164  and  _165
REMARK   63  A    between atoms: _170  and  _171
REMARK   64  A    between atoms: _173  and  _175
REMARK   65  A    between atoms: _175  and  _176
REMARK   66  A    between atoms: _175  and  _178
REMARK   67  A    between atoms: _178  and  _179
REMARK   68  A    between atoms: _184  and  _186
REMARK   69  A    between atoms: _186  and  _187
REMARK   70  A    between atoms: _186  and  _189
REMARK   71  A    between atoms: _189  and  _190
REMARK   72  A    between atoms: _193  and  _195
REMARK   73  A    between atoms: _195  and  _196
REMARK   74  A    between atoms: _195  and  _198
REMARK   75  A    between atoms: _198  and  _199
REMARK   76  A    between atoms: _204  and  _205
REMARK   77  A    between atoms: _208  and  _209
REMARK   78  A    between atoms: _214  and  _216
REMARK   79  A    between atoms: _216  and  _217
REMARK   80  A    between atoms: _216  and  _219
REMARK   81  A    between atoms: _219  and  _220
REMARK   82  A    between atoms: _230  and  _232
REMARK   83  A    between atoms: _232  and  _233
REMARK   84  A    between atoms: _232  and  _235
REMARK   85  A    between atoms: _235  and  _236
REMARK   86  A    between atoms: _236  and  _237
REMARK   87  A    between atoms: _237  and  _238
REMARK   88  A    between atoms: _247  and  _249
REMARK   89  A    between atoms: _249  and  _250
REMARK   90  A    between atoms: _249  and  _252
REMARK   91  A    between atoms: _252  and  _253
REMARK   92  A    between atoms: _258  and  _260
REMARK   93  A    between atoms: _260  and  _261
REMARK   94  A    between atoms: _260  and  _263
REMARK   95  A    between atoms: _263  and  _264
REMARK   96  A    between atoms: _267  and  _269
REMARK   97  A    between atoms: _269  and  _270
REMARK   98  A    between atoms: _269  and  _272
REMARK   99  A    between atoms: _272  and  _273
REMARK  100  A    between atoms: _283  and  _285
REMARK  101  A    between atoms: _285  and  _286
REMARK  102  A    between atoms: _285  and  _288
REMARK  103  A    between atoms: _288  and  _289
REMARK  104  A    between atoms: _289  and  _290
REMARK  105  A    between atoms: _290  and  _291
REMARK  106  A    between atoms: _300  and  _302
REMARK  107  A    between atoms: _302  and  _303
REMARK  108  A    between atoms: _302  and  _305
REMARK  109  A    between atoms: _305  and  _306
REMARK  110  A    between atoms: _310  and  FE_383
REMARK  111  A    between atoms: _311  and  _313
REMARK  112  A    between atoms: _313  and  _314
REMARK  113  A    between atoms: _313  and  _316
REMARK  114  A    between atoms: _316  and  _317
REMARK  115  A    between atoms: _321  and  FE_383
REMARK  116  A    between atoms: _322  and  _324
REMARK  117  A    between atoms: _324  and  _325
REMARK  118  A    between atoms: _324  and  _327
REMARK  119  A    between atoms: _328  and  _329
REMARK  120  A    between atoms: _334  and  _336
REMARK  121  A    between atoms: _336  and  _337
REMARK  122  A    between atoms: _336  and  _339
REMARK  123  A    between atoms: _339  and  _340
REMARK  124  A    between atoms: _345  and  _346
REMARK  125  A    between atoms: _348  and  _350
REMARK  126  A    between atoms: _350  and  _351
REMARK  127  A    between atoms: _350  and  _353
REMARK  128  A    between atoms: _355  and  _357
REMARK  129  A    between atoms: _357  and  _358
REMARK  130  A    between atoms: _357  and  _360
REMARK  131  A    between atoms: _360  and  _361
REMARK  132  A    between atoms: _364  and  _366
REMARK  133  A    between atoms: _366  and  _367
REMARK  134  A    between atoms: _366  and  _369
REMARK  135  A    between atoms: _369  and  _370
REMARK  136  A    between atoms: _370  and  _371
REMARK  137  A    between atoms: _374  and  _376
REMARK  138  A    between atoms: _376  and  _377
REMARK  139  A    between atoms: _376  and  _379
REMARK  140  A    between atoms: _379  and  _380
REMARK  141  A    between atoms: _380  and  _381
REMARK                            x       y       z     vdW  Elec       q    Type
REMARK                         _______ _______ _______ _____ _____    ______ ____
ROOT
ATOM      1  O   HOH     1       8.485   4.441  41.943  0.00  0.00    +0.000 OA
ENDROOT
TORSDOF 0
REMARK  Name = ../refined-set-2016/3pce/3pce_pocket.pdb
REMARK  141 active torsions:
REMARK  status: ('A' for Active; 'I' for Inactive)
REMARK    1  A    between atoms: _1  and  _3
REMARK    2  A    between atoms: _3  and  _4
REMARK    3  A    between atoms: _3  and  _6
REMARK    4  A    between atoms: _6  and  _7
REMARK    5  A    between atoms: _7  and  _8
REMARK    6  A    between atoms: _13  and  _15
REMARK    7  A    between atoms: _15  and  _16
REMARK    8  A    between atoms: _15  and  _18
REMARK    9  A    between atoms: _18  and  _19
REMARK   10  A    between atoms: _22  and  _24
REMARK   11  A    between atoms: _24  and  _25
REMARK   12  A    between atoms: _28  and  _30
REMARK   13  A    between atoms: _30  and  _31
REMARK   14  A    between atoms: _34  and  _35
REMARK   15  A    between atoms: _40  and  _42
REMARK   16  A    between atoms: _42  and  _43
REMARK   17  A    between atoms: _42  and  _45
REMARK   18  A    between atoms: _45  and  _46
REMARK   19  A    between atoms: _51  and  _52
REMARK   20  A    between atoms: _54  and  _56
REMARK   21  A    between atoms: _56  and  _57
REMARK   22  A    between atoms: _56  and  _59
REMARK   23  A    between atoms: _62  and  _64
REMARK   24  A    between atoms: _64  and  _65
REMARK   25  A    between atoms: _64  and  _67
REMARK   26  A    between atoms: _67  and  _68
REMARK   27  A    between atoms: _71  and  _73
REMARK   28  A    between atoms: _73  and  _74
REMARK   29  A    between atoms: _73  and  _76
REMARK   30  A    between atoms: _76  and  _77
REMARK   31  A    between atoms: _80  and  _82
REMARK   32  A    between atoms: _82  and  _83
REMARK   33  A    between atoms: _82  and  _85
REMARK   34  A    between atoms: _85  and  _86
REMARK   35  A    between atoms: _86  and  _87
REMARK   36  A    between atoms: _87  and  _88
REMARK   37  A    between atoms: _97  and  _99
REMARK   38  A    between atoms: _99  and  _100
REMARK   39  A    between atoms: _102  and  _104
REMARK   40  A    between atoms: _104  and  _105
REMARK   41  A    between atoms: _104  and  _107
REMARK   42  A    between atoms: _107  and  _108
REMARK   43  A    between atoms: _113  and  _114
REMARK   44  A    between atoms: _116  and  _118
REMARK   45  A    between atoms: _118  and  _119
REMARK   46  A    between atoms: _118  and  _121
REMARK   47  A    between atoms: _121  and  _122
REMARK   48  A    between atoms: _125  and  _127
REMARK   49  A    between atoms: _127  and  _128
REMARK   50  A    between atoms: _127  and  _130
REMARK   51  A    between atoms: _130  and  _131
REMARK   52  A    between atoms: _141  and  _143
REMARK   53  A    between atoms: _143  and  _144
REMARK   54  A    between atoms: _143  and  _146
REMARK   55  A    between atoms: _146  and  _147
REMARK   56  A    between atoms: _147  and  _148
REMARK   57  A    between atoms: _153  and  _155
REMARK   58  A    between atoms: _155  and  _156
REMARK   59  A    between atoms: _159  and  _161
REMARK   60  A    between atoms: _161  and  _162
REMARK   61  A    between atoms: _161  and  _164
REMARK   62  A    between atoms: _164  and  _165
REMARK   63  A    between atoms: _170  and  _171
REMARK   64  A    between atoms: _173  and  _175
REMARK   65  A    between atoms: _175  and  _176
REMARK   66  A    between atoms: _175  and  _178
REMARK   67  A    between atoms: _178  and  _179
REMARK   68  A    between atoms: _184  and  _186
REMARK   69  A    between atoms: _186  and  _187
REMARK   70  A    between atoms: _186  and  _189
REMARK   71  A    between atoms: _189  and  _190
REMARK   72  A    between atoms: _193  and  _195
REMARK   73  A    between atoms: _195  and  _196
REMARK   74  A    between atoms: _195  and  _198
REMARK   75  A    between atoms: _198  and  _199
REMARK   76  A    between atoms: _204  and  _205
REMARK   77  A    between atoms: _208  and  _209
REMARK   78  A    between atoms: _214  and  _216
REMARK   79  A    between atoms: _216  and  _217
REMARK   80  A    between atoms: _216  and  _219
REMARK   81  A    between atoms: _219  and  _220
REMARK   82  A    between atoms: _230  and  _232
REMARK   83  A    between atoms: _232  and  _233
REMARK   84  A    between atoms: _232  and  _235
REMARK   85  A    between atoms: _235  and  _236
REMARK   86  A    between atoms: _236  and  _237
REMARK   87  A    between atoms: _237  and  _238
REMARK   88  A    between atoms: _247  and  _249
REMARK   89  A    between atoms: _249  and  _250
REMARK   90  A    between atoms: _249  and  _252
REMARK   91  A    between atoms: _252  and  _253
REMARK   92  A    between atoms: _258  and  _260
REMARK   93  A    between atoms: _260  and  _261
REMARK   94  A    between atoms: _260  and  _263
REMARK   95  A    between atoms: _263  and  _264
REMARK   96  A    between atoms: _267  and  _269
REMARK   97  A    between atoms: _269  and  _270
REMARK   98  A    between atoms: _269  and  _272
REMARK   99  A    between atoms: _272  and  _273
REMARK  100  A    between atoms: _283  and  _285
REMARK  101  A    between atoms: _285  and  _286
REMARK  102  A    between atoms: _285  and  _288
REMARK  103  A    between atoms: _288  and  _289
REMARK  104  A    between atoms: _289  and  _290
REMARK  105  A    between atoms: _290  and  _291
REMARK  106  A    between atoms: _300  and  _302
REMARK  107  A    between atoms: _302  and  _303
REMARK  108  A    between atoms: _302  and  _305
REMARK  109  A    between atoms: _305  and  _306
REMARK  110  A    between atoms: _310  and  FE_383
REMARK  111  A    between atoms: _311  and  _313
REMARK  112  A    between atoms: _313  and  _314
REMARK  113  A    between atoms: _313  and  _316
REMARK  114  A    between atoms: _316  and  _317
REMARK  115  A    between atoms: _321  and  FE_383
REMARK  116  A    between atoms: _322  and  _324
REMARK  117  A    between atoms: _324  and  _325
REMARK  118  A    between atoms: _324  and  _327
REMARK  119  A    between atoms: _328  and  _329
REMARK  120  A    between atoms: _334  and  _336
REMARK  121  A    between atoms: _336  and  _337
REMARK  122  A    between atoms: _336  and  _339
REMARK  123  A    between atoms: _339  and  _340
REMARK  124  A    between atoms: _345  and  _346
REMARK  125  A    between atoms: _348  and  _350
REMARK  126  A    between atoms: _350  and  _351
REMARK  127  A    between atoms: _350  and  _353
REMARK  128  A    between atoms: _355  and  _357
REMARK  129  A    between atoms: _357  and  _358
REMARK  130  A    between atoms: _357  and  _360
REMARK  131  A    between atoms: _360  and  _361
REMARK  132  A    between atoms: _364  and  _366
REMARK  133  A    between atoms: _366  and  _367
REMARK  134  A    between atoms: _366  and  _369
REMARK  135  A    between atoms: _369  and  _370
REMARK  136  A    between atoms: _370  and  _371
REMARK  137  A    between atoms: _374  and  _376
REMARK  138  A    between atoms: _376  and  _377
REMARK  139  A    between atoms: _376  and  _379
REMARK  140  A    between atoms: _379  and  _380
REMARK  141  A    between atoms: _380  and  _381
REMARK                            x       y       z     vdW  Elec       q    Type
REMARK                         _______ _______ _______ _____ _____    ______ ____
ROOT
ATOM      1  O   HOH     1      10.900   3.634  43.477  0.00  0.00    +0.000 OA
ENDROOT
TORSDOF 0
REMARK  Name = ../refined-set-2016/3pce/3pce_pocket.pdb
REMARK  141 active torsions:
REMARK  status: ('A' for Active; 'I' for Inactive)
REMARK    1  A    between atoms: _1  and  _3
REMARK    2  A    between atoms: _3  and  _4
REMARK    3  A    between atoms: _3  and  _6
REMARK    4  A    between atoms: _6  and  _7
REMARK    5  A    between atoms: _7  and  _8
REMARK    6  A    between atoms: _13  and  _15
REMARK    7  A    between atoms: _15  and  _16
REMARK    8  A    between atoms: _15  and  _18
REMARK    9  A    between atoms: _18  and  _19
REMARK   10  A    between atoms: _22  and  _24
REMARK   11  A    between atoms: _24  and  _25
REMARK   12  A    between atoms: _28  and  _30
REMARK   13  A    between atoms: _30  and  _31
REMARK   14  A    between atoms: _34  and  _35
REMARK   15  A    between atoms: _40  and  _42
REMARK   16  A    between atoms: _42  and  _43
REMARK   17  A    between atoms: _42  and  _45
REMARK   18  A    between atoms: _45  and  _46
REMARK   19  A    between atoms: _51  and  _52
REMARK   20  A    between atoms: _54  and  _56
REMARK   21  A    between atoms: _56  and  _57
REMARK   22  A    between atoms: _56  and  _59
REMARK   23  A    between atoms: _62  and  _64
REMARK   24  A    between atoms: _64  and  _65
REMARK   25  A    between atoms: _64  and  _67
REMARK   26  A    between atoms: _67  and  _68
REMARK   27  A    between atoms: _71  and  _73
REMARK   28  A    between atoms: _73  and  _74
REMARK   29  A    between atoms: _73  and  _76
REMARK   30  A    between atoms: _76  and  _77
REMARK   31  A    between atoms: _80  and  _82
REMARK   32  A    between atoms: _82  and  _83
REMARK   33  A    between atoms: _82  and  _85
REMARK   34  A    between atoms: _85  and  _86
REMARK   35  A    between atoms: _86  and  _87
REMARK   36  A    between atoms: _87  and  _88
REMARK   37  A    between atoms: _97  and  _99
REMARK   38  A    between atoms: _99  and  _100
REMARK   39  A    between atoms: _102  and  _104
REMARK   40  A    between atoms: _104  and  _105
REMARK   41  A    between atoms: _104  and  _107
REMARK   42  A    between atoms: _107  and  _108
REMARK   43  A    between atoms: _113  and  _114
REMARK   44  A    between atoms: _116  and  _118
REMARK   45  A    between atoms: _118  and  _119
REMARK   46  A    between atoms: _118  and  _121
REMARK   47  A    between atoms: _121  and  _122
REMARK   48  A    between atoms: _125  and  _127
REMARK   49  A    between atoms: _127  and  _128
REMARK   50  A    between atoms: _127  and  _130
REMARK   51  A    between atoms: _130  and  _131
REMARK   52  A    between atoms: _141  and  _143
REMARK   53  A    between atoms: _143  and  _144
REMARK   54  A    between atoms: _143  and  _146
REMARK   55  A    between atoms: _146  and  _147
REMARK   56  A    between atoms: _147  and  _148
REMARK   57  A    between atoms: _153  and  _155
REMARK   58  A    between atoms: _155  and  _156
REMARK   59  A    between atoms: _159  and  _161
REMARK   60  A    between atoms: _161  and  _162
REMARK   61  A    between atoms: _161  and  _164
REMARK   62  A    between atoms: _164  and  _165
REMARK   63  A    between atoms: _170  and  _171
REMARK   64  A    between atoms: _173  and  _175
REMARK   65  A    between atoms: _175  and  _176
REMARK   66  A    between atoms: _175  and  _178
REMARK   67  A    between atoms: _178  and  _179
REMARK   68  A    between atoms: _184  and  _186
REMARK   69  A    between atoms: _186  and  _187
REMARK   70  A    between atoms: _186  and  _189
REMARK   71  A    between atoms: _189  and  _190
REMARK   72  A    between atoms: _193  and  _195
REMARK   73  A    between atoms: _195  and  _196
REMARK   74  A    between atoms: _195  and  _198
REMARK   75  A    between atoms: _198  and  _199
REMARK   76  A    between atoms: _204  and  _205
REMARK   77  A    between atoms: _208  and  _209
REMARK   78  A    between atoms: _214  and  _216
REMARK   79  A    between atoms: _216  and  _217
REMARK   80  A    between atoms: _216  and  _219
REMARK   81  A    between atoms: _219  and  _220
REMARK   82  A    between atoms: _230  and  _232
REMARK   83  A    between atoms: _232  and  _233
REMARK   84  A    between atoms: _232  and  _235
REMARK   85  A    between atoms: _235  and  _236
REMARK   86  A    between atoms: _236  and  _237
REMARK   87  A    between atoms: _237  and  _238
REMARK   88  A    between atoms: _247  and  _249
REMARK   89  A    between atoms: _249  and  _250
REMARK   90  A    between atoms: _249  and  _252
REMARK   91  A    between atoms: _252  and  _253
REMARK   92  A    between atoms: _258  and  _260
REMARK   93  A    between atoms: _260  and  _261
REMARK   94  A    between atoms: _260  and  _263
REMARK   95  A    between atoms: _263  and  _264
REMARK   96  A    between atoms: _267  and  _269
REMARK   97  A    between atoms: _269  and  _270
REMARK   98  A    between atoms: _269  and  _272
REMARK   99  A    between atoms: _272  and  _273
REMARK  100  A    between atoms: _283  and  _285
REMARK  101  A    between atoms: _285  and  _286
REMARK  102  A    between atoms: _285  and  _288
REMARK  103  A    between atoms: _288  and  _289
REMARK  104  A    between atoms: _289  and  _290
REMARK  105  A    between atoms: _290  and  _291
REMARK  106  A    between atoms: _300  and  _302
REMARK  107  A    between atoms: _302  and  _303
REMARK  108  A    between atoms: _302  and  _305
REMARK  109  A    between atoms: _305  and  _306
REMARK  110  A    between atoms: _310  and  FE_383
REMARK  111  A    between atoms: _311  and  _313
REMARK  112  A    between atoms: _313  and  _314
REMARK  113  A    between atoms: _313  and  _316
REMARK  114  A    between atoms: _316  and  _317
REMARK  115  A    between atoms: _321  and  FE_383
REMARK  116  A    between atoms: _322  and  _324
REMARK  117  A    between atoms: _324  and  _325
REMARK  118  A    between atoms: _324  and  _327
REMARK  119  A    between atoms: _328  and  _329
REMARK  120  A    between atoms: _334  and  _336
REMARK  121  A    between atoms: _336  and  _337
REMARK  122  A    between atoms: _336  and  _339
REMARK  123  A    between atoms: _339  and  _340
REMARK  124  A    between atoms: _345  and  _346
REMARK  125  A    between atoms: _348  and  _350
REMARK  126  A    between atoms: _350  and  _351
REMARK  127  A    between atoms: _350  and  _353
REMARK  128  A    between atoms: _355  and  _357
REMARK  129  A    between atoms: _357  and  _358
REMARK  130  A    between atoms: _357  and  _360
REMARK  131  A    between atoms: _360  and  _361
REMARK  132  A    between atoms: _364  and  _366
REMARK  133  A    between atoms: _366  and  _367
REMARK  134  A    between atoms: _366  and  _369
REMARK  135  A    between atoms: _369  and  _370
REMARK  136  A    between atoms: _370  and  _371
REMARK  137  A    between atoms: _374  and  _376
REMARK  138  A    between atoms: _376  and  _377
REMARK  139  A    between atoms: _376  and  _379
REMARK  140  A    between atoms: _379  and  _380
REMARK  141  A    between atoms: _380  and  _381
REMARK                            x       y       z     vdW  Elec       q    Type
REMARK                         _______ _______ _______ _____ _____    ______ ____
ROOT
ATOM      1  O   HOH     1      15.388  18.571  38.027  0.00  0.00    +0.000 OA
ENDROOT
TORSDOF 0
REMARK  Name = ../refined-set-2016/3pce/3pce_pocket.pdb
REMARK  141 active torsions:
REMARK  status: ('A' for Active; 'I' for Inactive)
REMARK    1  A    between atoms: _1  and  _3
REMARK    2  A    between atoms: _3  and  _4
REMARK    3  A    between atoms: _3  and  _6
REMARK    4  A    between atoms: _6  and  _7
REMARK    5  A    between atoms: _7  and  _8
REMARK    6  A    between atoms: _13  and  _15
REMARK    7  A    between atoms: _15  and  _16
REMARK    8  A    between atoms: _15  and  _18
REMARK    9  A    between atoms: _18  and  _19
REMARK   10  A    between atoms: _22  and  _24
REMARK   11  A    between atoms: _24  and  _25
REMARK   12  A    between atoms: _28  and  _30
REMARK   13  A    between atoms: _30  and  _31
REMARK   14  A    between atoms: _34  and  _35
REMARK   15  A    between atoms: _40  and  _42
REMARK   16  A    between atoms: _42  and  _43
REMARK   17  A    between atoms: _42  and  _45
REMARK   18  A    between atoms: _45  and  _46
REMARK   19  A    between atoms: _51  and  _52
REMARK   20  A    between atoms: _54  and  _56
REMARK   21  A    between atoms: _56  and  _57
REMARK   22  A    between atoms: _56  and  _59
REMARK   23  A    between atoms: _62  and  _64
REMARK   24  A    between atoms: _64  and  _65
REMARK   25  A    between atoms: _64  and  _67
REMARK   26  A    between atoms: _67  and  _68
REMARK   27  A    between atoms: _71  and  _73
REMARK   28  A    between atoms: _73  and  _74
REMARK   29  A    between atoms: _73  and  _76
REMARK   30  A    between atoms: _76  and  _77
REMARK   31  A    between atoms: _80  and  _82
REMARK   32  A    between atoms: _82  and  _83
REMARK   33  A    between atoms: _82  and  _85
REMARK   34  A    between atoms: _85  and  _86
REMARK   35  A    between atoms: _86  and  _87
REMARK   36  A    between atoms: _87  and  _88
REMARK   37  A    between atoms: _97  and  _99
REMARK   38  A    between atoms: _99  and  _100
REMARK   39  A    between atoms: _102  and  _104
REMARK   40  A    between atoms: _104  and  _105
REMARK   41  A    between atoms: _104  and  _107
REMARK   42  A    between atoms: _107  and  _108
REMARK   43  A    between atoms: _113  and  _114
REMARK   44  A    between atoms: _116  and  _118
REMARK   45  A    between atoms: _118  and  _119
REMARK   46  A    between atoms: _118  and  _121
REMARK   47  A    between atoms: _121  and  _122
REMARK   48  A    between atoms: _125  and  _127
REMARK   49  A    between atoms: _127  and  _128
REMARK   50  A    between atoms: _127  and  _130
REMARK   51  A    between atoms: _130  and  _131
REMARK   52  A    between atoms: _141  and  _143
REMARK   53  A    between atoms: _143  and  _144
REMARK   54  A    between atoms: _143  and  _146
REMARK   55  A    between atoms: _146  and  _147
REMARK   56  A    between atoms: _147  and  _148
REMARK   57  A    between atoms: _153  and  _155
REMARK   58  A    between atoms: _155  and  _156
REMARK   59  A    between atoms: _159  and  _161
REMARK   60  A    between atoms: _161  and  _162
REMARK   61  A    between atoms: _161  and  _164
REMARK   62  A    between atoms: _164  and  _165
REMARK   63  A    between atoms: _170  and  _171
REMARK   64  A    between atoms: _173  and  _175
REMARK   65  A    between atoms: _175  and  _176
REMARK   66  A    between atoms: _175  and  _178
REMARK   67  A    between atoms: _178  and  _179
REMARK   68  A    between atoms: _184  and  _186
REMARK   69  A    between atoms: _186  and  _187
REMARK   70  A    between atoms: _186  and  _189
REMARK   71  A    between atoms: _189  and  _190
REMARK   72  A    between atoms: _193  and  _195
REMARK   73  A    between atoms: _195  and  _196
REMARK   74  A    between atoms: _195  and  _198
REMARK   75  A    between atoms: _198  and  _199
REMARK   76  A    between atoms: _204  and  _205
REMARK   77  A    between atoms: _208  and  _209
REMARK   78  A    between atoms: _214  and  _216
REMARK   79  A    between atoms: _216  and  _217
REMARK   80  A    between atoms: _216  and  _219
REMARK   81  A    between atoms: _219  and  _220
REMARK   82  A    between atoms: _230  and  _232
REMARK   83  A    between atoms: _232  and  _233
REMARK   84  A    between atoms: _232  and  _235
REMARK   85  A    between atoms: _235  and  _236
REMARK   86  A    between atoms: _236  and  _237
REMARK   87  A    between atoms: _237  and  _238
REMARK   88  A    between atoms: _247  and  _249
REMARK   89  A    between atoms: _249  and  _250
REMARK   90  A    between atoms: _249  and  _252
REMARK   91  A    between atoms: _252  and  _253
REMARK   92  A    between atoms: _258  and  _260
REMARK   93  A    between atoms: _260  and  _261
REMARK   94  A    between atoms: _260  and  _263
REMARK   95  A    between atoms: _263  and  _264
REMARK   96  A    between atoms: _267  and  _269
REMARK   97  A    between atoms: _269  and  _270
REMARK   98  A    between atoms: _269  and  _272
REMARK   99  A    between atoms: _272  and  _273
REMARK  100  A    between atoms: _283  and  _285
REMARK  101  A    between atoms: _285  and  _286
REMARK  102  A    between atoms: _285  and  _288
REMARK  103  A    between atoms: _288  and  _289
REMARK  104  A    between atoms: _289  and  _290
REMARK  105  A    between atoms: _290  and  _291
REMARK  106  A    between atoms: _300  and  _302
REMARK  107  A    between atoms: _302  and  _303
REMARK  108  A    between atoms: _302  and  _305
REMARK  109  A    between atoms: _305  and  _306
REMARK  110  A    between atoms: _310  and  FE_383
REMARK  111  A    between atoms: _311  and  _313
REMARK  112  A    between atoms: _313  and  _314
REMARK  113  A    between atoms: _313  and  _316
REMARK  114  A    between atoms: _316  and  _317
REMARK  115  A    between atoms: _321  and  FE_383
REMARK  116  A    between atoms: _322  and  _324
REMARK  117  A    between atoms: _324  and  _325
REMARK  118  A    between atoms: _324  and  _327
REMARK  119  A    between atoms: _328  and  _329
REMARK  120  A    between atoms: _334  and  _336
REMARK  121  A    between atoms: _336  and  _337
REMARK  122  A    between atoms: _336  and  _339
REMARK  123  A    between atoms: _339  and  _340
REMARK  124  A    between atoms: _345  and  _346
REMARK  125  A    between atoms: _348  and  _350
REMARK  126  A    between atoms: _350  and  _351
REMARK  127  A    between atoms: _350  and  _353
REMARK  128  A    between atoms: _355  and  _357
REMARK  129  A    between atoms: _357  and  _358
REMARK  130  A    between atoms: _357  and  _360
REMARK  131  A    between atoms: _360  and  _361
REMARK  132  A    between atoms: _364  and  _366
REMARK  133  A    between atoms: _366  and  _367
REMARK  134  A    between atoms: _366  and  _369
REMARK  135  A    between atoms: _369  and  _370
REMARK  136  A    between atoms: _370  and  _371
REMARK  137  A    between atoms: _374  and  _376
REMARK  138  A    between atoms: _376  and  _377
REMARK  139  A    between atoms: _376  and  _379
REMARK  140  A    between atoms: _379  and  _380
REMARK  141  A    between atoms: _380  and  _381
REMARK                            x       y       z     vdW  Elec       q    Type
REMARK                         _______ _______ _______ _____ _____    ______ ____
ROOT
ATOM      1  O   HOH     1      11.496  16.957  43.862  0.00  0.00    +0.000 OA
ENDROOT
TORSDOF 0
REMARK  Name = ../refined-set-2016/3pce/3pce_pocket.pdb
REMARK  141 active torsions:
REMARK  status: ('A' for Active; 'I' for Inactive)
REMARK    1  A    between atoms: _1  and  _3
REMARK    2  A    between atoms: _3  and  _4
REMARK    3  A    between atoms: _3  and  _6
REMARK    4  A    between atoms: _6  and  _7
REMARK    5  A    between atoms: _7  and  _8
REMARK    6  A    between atoms: _13  and  _15
REMARK    7  A    between atoms: _15  and  _16
REMARK    8  A    between atoms: _15  and  _18
REMARK    9  A    between atoms: _18  and  _19
REMARK   10  A    between atoms: _22  and  _24
REMARK   11  A    between atoms: _24  and  _25
REMARK   12  A    between atoms: _28  and  _30
REMARK   13  A    between atoms: _30  and  _31
REMARK   14  A    between atoms: _34  and  _35
REMARK   15  A    between atoms: _40  and  _42
REMARK   16  A    between atoms: _42  and  _43
REMARK   17  A    between atoms: _42  and  _45
REMARK   18  A    between atoms: _45  and  _46
REMARK   19  A    between atoms: _51  and  _52
REMARK   20  A    between atoms: _54  and  _56
REMARK   21  A    between atoms: _56  and  _57
REMARK   22  A    between atoms: _56  and  _59
REMARK   23  A    between atoms: _62  and  _64
REMARK   24  A    between atoms: _64  and  _65
REMARK   25  A    between atoms: _64  and  _67
REMARK   26  A    between atoms: _67  and  _68
REMARK   27  A    between atoms: _71  and  _73
REMARK   28  A    between atoms: _73  and  _74
REMARK   29  A    between atoms: _73  and  _76
REMARK   30  A    between atoms: _76  and  _77
REMARK   31  A    between atoms: _80  and  _82
REMARK   32  A    between atoms: _82  and  _83
REMARK   33  A    between atoms: _82  and  _85
REMARK   34  A    between atoms: _85  and  _86
REMARK   35  A    between atoms: _86  and  _87
REMARK   36  A    between atoms: _87  and  _88
REMARK   37  A    between atoms: _97  and  _99
REMARK   38  A    between atoms: _99  and  _100
REMARK   39  A    between atoms: _102  and  _104
REMARK   40  A    between atoms: _104  and  _105
REMARK   41  A    between atoms: _104  and  _107
REMARK   42  A    between atoms: _107  and  _108
REMARK   43  A    between atoms: _113  and  _114
REMARK   44  A    between atoms: _116  and  _118
REMARK   45  A    between atoms: _118  and  _119
REMARK   46  A    between atoms: _118  and  _121
REMARK   47  A    between atoms: _121  and  _122
REMARK   48  A    between atoms: _125  and  _127
REMARK   49  A    between atoms: _127  and  _128
REMARK   50  A    between atoms: _127  and  _130
REMARK   51  A    between atoms: _130  and  _131
REMARK   52  A    between atoms: _141  and  _143
REMARK   53  A    between atoms: _143  and  _144
REMARK   54  A    between atoms: _143  and  _146
REMARK   55  A    between atoms: _146  and  _147
REMARK   56  A    between atoms: _147  and  _148
REMARK   57  A    between atoms: _153  and  _155
REMARK   58  A    between atoms: _155  and  _156
REMARK   59  A    between atoms: _159  and  _161
REMARK   60  A    between atoms: _161  and  _162
REMARK   61  A    between atoms: _161  and  _164
REMARK   62  A    between atoms: _164  and  _165
REMARK   63  A    between atoms: _170  and  _171
REMARK   64  A    between atoms: _173  and  _175
REMARK   65  A    between atoms: _175  and  _176
REMARK   66  A    between atoms: _175  and  _178
REMARK   67  A    between atoms: _178  and  _179
REMARK   68  A    between atoms: _184  and  _186
REMARK   69  A    between atoms: _186  and  _187
REMARK   70  A    between atoms: _186  and  _189
REMARK   71  A    between atoms: _189  and  _190
REMARK   72  A    between atoms: _193  and  _195
REMARK   73  A    between atoms: _195  and  _196
REMARK   74  A    between atoms: _195  and  _198
REMARK   75  A    between atoms: _198  and  _199
REMARK   76  A    between atoms: _204  and  _205
REMARK   77  A    between atoms: _208  and  _209
REMARK   78  A    between atoms: _214  and  _216
REMARK   79  A    between atoms: _216  and  _217
REMARK   80  A    between atoms: _216  and  _219
REMARK   81  A    between atoms: _219  and  _220
REMARK   82  A    between atoms: _230  and  _232
REMARK   83  A    between atoms: _232  and  _233
REMARK   84  A    between atoms: _232  and  _235
REMARK   85  A    between atoms: _235  and  _236
REMARK   86  A    between atoms: _236  and  _237
REMARK   87  A    between atoms: _237  and  _238
REMARK   88  A    between atoms: _247  and  _249
REMARK   89  A    between atoms: _249  and  _250
REMARK   90  A    between atoms: _249  and  _252
REMARK   91  A    between atoms: _252  and  _253
REMARK   92  A    between atoms: _258  and  _260
REMARK   93  A    between atoms: _260  and  _261
REMARK   94  A    between atoms: _260  and  _263
REMARK   95  A    between atoms: _263  and  _264
REMARK   96  A    between atoms: _267  and  _269
REMARK   97  A    between atoms: _269  and  _270
REMARK   98  A    between atoms: _269  and  _272
REMARK   99  A    between atoms: _272  and  _273
REMARK  100  A    between atoms: _283  and  _285
REMARK  101  A    between atoms: _285  and  _286
REMARK  102  A    between atoms: _285  and  _288
REMARK  103  A    between atoms: _288  and  _289
REMARK  104  A    between atoms: _289  and  _290
REMARK  105  A    between atoms: _290  and  _291
REMARK  106  A    between atoms: _300  and  _302
REMARK  107  A    between atoms: _302  and  _303
REMARK  108  A    between atoms: _302  and  _305
REMARK  109  A    between atoms: _305  and  _306
REMARK  110  A    between atoms: _310  and  FE_383
REMARK  111  A    between atoms: _311  and  _313
REMARK  112  A    between atoms: _313  and  _314
REMARK  113  A    between atoms: _313  and  _316
REMARK  114  A    between atoms: _316  and  _317
REMARK  115  A    between atoms: _321  and  FE_383
REMARK  116  A    between atoms: _322  and  _324
REMARK  117  A    between atoms: _324  and  _325
REMARK  118  A    between atoms: _324  and  _327
REMARK  119  A    between atoms: _328  and  _329
REMARK  120  A    between atoms: _334  and  _336
REMARK  121  A    between atoms: _336  and  _337
REMARK  122  A    between atoms: _336  and  _339
REMARK  123  A    between atoms: _339  and  _340
REMARK  124  A    between atoms: _345  and  _346
REMARK  125  A    between atoms: _348  and  _350
REMARK  126  A    between atoms: _350  and  _351
REMARK  127  A    between atoms: _350  and  _353
REMARK  128  A    between atoms: _355  and  _357
REMARK  129  A    between atoms: _357  and  _358
REMARK  130  A    between atoms: _357  and  _360
REMARK  131  A    between atoms: _360  and  _361
REMARK  132  A    between atoms: _364  and  _366
REMARK  133  A    between atoms: _366  and  _367
REMARK  134  A    between atoms: _366  and  _369
REMARK  135  A    between atoms: _369  and  _370
REMARK  136  A    between atoms: _370  and  _371
REMARK  137  A    between atoms: _374  and  _376
REMARK  138  A    between atoms: _376  and  _377
REMARK  139  A    between atoms: _376  and  _379
REMARK  140  A    between atoms: _379  and  _380
REMARK  141  A    between atoms: _380  and  _381
REMARK                            x       y       z     vdW  Elec       q    Type
REMARK                         _______ _______ _______ _____ _____    ______ ____
ROOT
ATOM      1  O   HOH     1       8.822  10.346  46.609  0.00  0.00    +0.000 OA
ENDROOT
TORSDOF 0
REMARK  Name = ../refined-set-2016/3pce/3pce_pocket.pdb
REMARK  141 active torsions:
REMARK  status: ('A' for Active; 'I' for Inactive)
REMARK    1  A    between atoms: _1  and  _3
REMARK    2  A    between atoms: _3  and  _4
REMARK    3  A    between atoms: _3  and  _6
REMARK    4  A    between atoms: _6  and  _7
REMARK    5  A    between atoms: _7  and  _8
REMARK    6  A    between atoms: _13  and  _15
REMARK    7  A    between atoms: _15  and  _16
REMARK    8  A    between atoms: _15  and  _18
REMARK    9  A    between atoms: _18  and  _19
REMARK   10  A    between atoms: _22  and  _24
REMARK   11  A    between atoms: _24  and  _25
REMARK   12  A    between atoms: _28  and  _30
REMARK   13  A    between atoms: _30  and  _31
REMARK   14  A    between atoms: _34  and  _35
REMARK   15  A    between atoms: _40  and  _42
REMARK   16  A    between atoms: _42  and  _43
REMARK   17  A    between atoms: _42  and  _45
REMARK   18  A    between atoms: _45  and  _46
REMARK   19  A    between atoms: _51  and  _52
REMARK   20  A    between atoms: _54  and  _56
REMARK   21  A    between atoms: _56  and  _57
REMARK   22  A    between atoms: _56  and  _59
REMARK   23  A    between atoms: _62  and  _64
REMARK   24  A    between atoms: _64  and  _65
REMARK   25  A    between atoms: _64  and  _67
REMARK   26  A    between atoms: _67  and  _68
REMARK   27  A    between atoms: _71  and  _73
REMARK   28  A    between atoms: _73  and  _74
REMARK   29  A    between atoms: _73  and  _76
REMARK   30  A    between atoms: _76  and  _77
REMARK   31  A    between atoms: _80  and  _82
REMARK   32  A    between atoms: _82  and  _83
REMARK   33  A    between atoms: _82  and  _85
REMARK   34  A    between atoms: _85  and  _86
REMARK   35  A    between atoms: _86  and  _87
REMARK   36  A    between atoms: _87  and  _88
REMARK   37  A    between atoms: _97  and  _99
REMARK   38  A    between atoms: _99  and  _100
REMARK   39  A    between atoms: _102  and  _104
REMARK   40  A    between atoms: _104  and  _105
REMARK   41  A    between atoms: _104  and  _107
REMARK   42  A    between atoms: _107  and  _108
REMARK   43  A    between atoms: _113  and  _114
REMARK   44  A    between atoms: _116  and  _118
REMARK   45  A    between atoms: _118  and  _119
REMARK   46  A    between atoms: _118  and  _121
REMARK   47  A    between atoms: _121  and  _122
REMARK   48  A    between atoms: _125  and  _127
REMARK   49  A    between atoms: _127  and  _128
REMARK   50  A    between atoms: _127  and  _130
REMARK   51  A    between atoms: _130  and  _131
REMARK   52  A    between atoms: _141  and  _143
REMARK   53  A    between atoms: _143  and  _144
REMARK   54  A    between atoms: _143  and  _146
REMARK   55  A    between atoms: _146  and  _147
REMARK   56  A    between atoms: _147  and  _148
REMARK   57  A    between atoms: _153  and  _155
REMARK   58  A    between atoms: _155  and  _156
REMARK   59  A    between atoms: _159  and  _161
REMARK   60  A    between atoms: _161  and  _162
REMARK   61  A    between atoms: _161  and  _164
REMARK   62  A    between atoms: _164  and  _165
REMARK   63  A    between atoms: _170  and  _171
REMARK   64  A    between atoms: _173  and  _175
REMARK   65  A    between atoms: _175  and  _176
REMARK   66  A    between atoms: _175  and  _178
REMARK   67  A    between atoms: _178  and  _179
REMARK   68  A    between atoms: _184  and  _186
REMARK   69  A    between atoms: _186  and  _187
REMARK   70  A    between atoms: _186  and  _189
REMARK   71  A    between atoms: _189  and  _190
REMARK   72  A    between atoms: _193  and  _195
REMARK   73  A    between atoms: _195  and  _196
REMARK   74  A    between atoms: _195  and  _198
REMARK   75  A    between atoms: _198  and  _199
REMARK   76  A    between atoms: _204  and  _205
REMARK   77  A    between atoms: _208  and  _209
REMARK   78  A    between atoms: _214  and  _216
REMARK   79  A    between atoms: _216  and  _217
REMARK   80  A    between atoms: _216  and  _219
REMARK   81  A    between atoms: _219  and  _220
REMARK   82  A    between atoms: _230  and  _232
REMARK   83  A    between atoms: _232  and  _233
REMARK   84  A    between atoms: _232  and  _235
REMARK   85  A    between atoms: _235  and  _236
REMARK   86  A    between atoms: _236  and  _237
REMARK   87  A    between atoms: _237  and  _238
REMARK   88  A    between atoms: _247  and  _249
REMARK   89  A    between atoms: _249  and  _250
REMARK   90  A    between atoms: _249  and  _252
REMARK   91  A    between atoms: _252  and  _253
REMARK   92  A    between atoms: _258  and  _260
REMARK   93  A    between atoms: _260  and  _261
REMARK   94  A    between atoms: _260  and  _263
REMARK   95  A    between atoms: _263  and  _264
REMARK   96  A    between atoms: _267  and  _269
REMARK   97  A    between atoms: _269  and  _270
REMARK   98  A    between atoms: _269  and  _272
REMARK   99  A    between atoms: _272  and  _273
REMARK  100  A    between atoms: _283  and  _285
REMARK  101  A    between atoms: _285  and  _286
REMARK  102  A    between atoms: _285  and  _288
REMARK  103  A    between atoms: _288  and  _289
REMARK  104  A    between atoms: _289  and  _290
REMARK  105  A    between atoms: _290  and  _291
REMARK  106  A    between atoms: _300  and  _302
REMARK  107  A    between atoms: _302  and  _303
REMARK  108  A    between atoms: _302  and  _305
REMARK  109  A    between atoms: _305  and  _306
REMARK  110  A    between atoms: _310  and  FE_383
REMARK  111  A    between atoms: _311  and  _313
REMARK  112  A    between atoms: _313  and  _314
REMARK  113  A    between atoms: _313  and  _316
REMARK  114  A    between atoms: _316  and  _317
REMARK  115  A    between atoms: _321  and  FE_383
REMARK  116  A    between atoms: _322  and  _324
REMARK  117  A    between atoms: _324  and  _325
REMARK  118  A    between atoms: _324  and  _327
REMARK  119  A    between atoms: _328  and  _329
REMARK  120  A    between atoms: _334  and  _336
REMARK  121  A    between atoms: _336  and  _337
REMARK  122  A    between atoms: _336  and  _339
REMARK  123  A    between atoms: _339  and  _340
REMARK  124  A    between atoms: _345  and  _346
REMARK  125  A    between atoms: _348  and  _350
REMARK  126  A    between atoms: _350  and  _351
REMARK  127  A    between atoms: _350  and  _353
REMARK  128  A    between atoms: _355  and  _357
REMARK  129  A    between atoms: _357  and  _358
REMARK  130  A    between atoms: _357  and  _360
REMARK  131  A    between atoms: _360  and  _361
REMARK  132  A    between atoms: _364  and  _366
REMARK  133  A    between atoms: _366  and  _367
REMARK  134  A    between atoms: _366  and  _369
REMARK  135  A    between atoms: _369  and  _370
REMARK  136  A    between atoms: _370  and  _371
REMARK  137  A    between atoms: _374  and  _376
REMARK  138  A    between atoms: _376  and  _377
REMARK  139  A    between atoms: _376  and  _379
REMARK  140  A    between atoms: _379  and  _380
REMARK  141  A    between atoms: _380  and  _381
REMARK                            x       y       z     vdW  Elec       q    Type
REMARK                         _______ _______ _______ _____ _____    ______ ____
ROOT
ATOM      1  O   HOH     1      16.257  13.340  40.150  0.00  0.00    +0.000 OA
ENDROOT
TORSDOF 0
REMARK  Name = ../refined-set-2016/3pce/3pce_pocket.pdb
REMARK  141 active torsions:
REMARK  status: ('A' for Active; 'I' for Inactive)
REMARK    1  A    between atoms: _1  and  _3
REMARK    2  A    between atoms: _3  and  _4
REMARK    3  A    between atoms: _3  and  _6
REMARK    4  A    between atoms: _6  and  _7
REMARK    5  A    between atoms: _7  and  _8
REMARK    6  A    between atoms: _13  and  _15
REMARK    7  A    between atoms: _15  and  _16
REMARK    8  A    between atoms: _15  and  _18
REMARK    9  A    between atoms: _18  and  _19
REMARK   10  A    between atoms: _22  and  _24
REMARK   11  A    between atoms: _24  and  _25
REMARK   12  A    between atoms: _28  and  _30
REMARK   13  A    between atoms: _30  and  _31
REMARK   14  A    between atoms: _34  and  _35
REMARK   15  A    between atoms: _40  and  _42
REMARK   16  A    between atoms: _42  and  _43
REMARK   17  A    between atoms: _42  and  _45
REMARK   18  A    between atoms: _45  and  _46
REMARK   19  A    between atoms: _51  and  _52
REMARK   20  A    between atoms: _54  and  _56
REMARK   21  A    between atoms: _56  and  _57
REMARK   22  A    between atoms: _56  and  _59
REMARK   23  A    between atoms: _62  and  _64
REMARK   24  A    between atoms: _64  and  _65
REMARK   25  A    between atoms: _64  and  _67
REMARK   26  A    between atoms: _67  and  _68
REMARK   27  A    between atoms: _71  and  _73
REMARK   28  A    between atoms: _73  and  _74
REMARK   29  A    between atoms: _73  and  _76
REMARK   30  A    between atoms: _76  and  _77
REMARK   31  A    between atoms: _80  and  _82
REMARK   32  A    between atoms: _82  and  _83
REMARK   33  A    between atoms: _82  and  _85
REMARK   34  A    between atoms: _85  and  _86
REMARK   35  A    between atoms: _86  and  _87
REMARK   36  A    between atoms: _87  and  _88
REMARK   37  A    between atoms: _97  and  _99
REMARK   38  A    between atoms: _99  and  _100
REMARK   39  A    between atoms: _102  and  _104
REMARK   40  A    between atoms: _104  and  _105
REMARK   41  A    between atoms: _104  and  _107
REMARK   42  A    between atoms: _107  and  _108
REMARK   43  A    between atoms: _113  and  _114
REMARK   44  A    between atoms: _116  and  _118
REMARK   45  A    between atoms: _118  and  _119
REMARK   46  A    between atoms: _118  and  _121
REMARK   47  A    between atoms: _121  and  _122
REMARK   48  A    between atoms: _125  and  _127
REMARK   49  A    between atoms: _127  and  _128
REMARK   50  A    between atoms: _127  and  _130
REMARK   51  A    between atoms: _130  and  _131
REMARK   52  A    between atoms: _141  and  _143
REMARK   53  A    between atoms: _143  and  _144
REMARK   54  A    between atoms: _143  and  _146
REMARK   55  A    between atoms: _146  and  _147
REMARK   56  A    between atoms: _147  and  _148
REMARK   57  A    between atoms: _153  and  _155
REMARK   58  A    between atoms: _155  and  _156
REMARK   59  A    between atoms: _159  and  _161
REMARK   60  A    between atoms: _161  and  _162
REMARK   61  A    between atoms: _161  and  _164
REMARK   62  A    between atoms: _164  and  _165
REMARK   63  A    between atoms: _170  and  _171
REMARK   64  A    between atoms: _173  and  _175
REMARK   65  A    between atoms: _175  and  _176
REMARK   66  A    between atoms: _175  and  _178
REMARK   67  A    between atoms: _178  and  _179
REMARK   68  A    between atoms: _184  and  _186
REMARK   69  A    between atoms: _186  and  _187
REMARK   70  A    between atoms: _186  and  _189
REMARK   71  A    between atoms: _189  and  _190
REMARK   72  A    between atoms: _193  and  _195
REMARK   73  A    between atoms: _195  and  _196
REMARK   74  A    between atoms: _195  and  _198
REMARK   75  A    between atoms: _198  and  _199
REMARK   76  A    between atoms: _204  and  _205
REMARK   77  A    between atoms: _208  and  _209
REMARK   78  A    between atoms: _214  and  _216
REMARK   79  A    between atoms: _216  and  _217
REMARK   80  A    between atoms: _216  and  _219
REMARK   81  A    between atoms: _219  and  _220
REMARK   82  A    between atoms: _230  and  _232
REMARK   83  A    between atoms: _232  and  _233
REMARK   84  A    between atoms: _232  and  _235
REMARK   85  A    between atoms: _235  and  _236
REMARK   86  A    between atoms: _236  and  _237
REMARK   87  A    between atoms: _237  and  _238
REMARK   88  A    between atoms: _247  and  _249
REMARK   89  A    between atoms: _249  and  _250
REMARK   90  A    between atoms: _249  and  _252
REMARK   91  A    between atoms: _252  and  _253
REMARK   92  A    between atoms: _258  and  _260
REMARK   93  A    between atoms: _260  and  _261
REMARK   94  A    between atoms: _260  and  _263
REMARK   95  A    between atoms: _263  and  _264
REMARK   96  A    between atoms: _267  and  _269
REMARK   97  A    between atoms: _269  and  _270
REMARK   98  A    between atoms: _269  and  _272
REMARK   99  A    between atoms: _272  and  _273
REMARK  100  A    between atoms: _283  and  _285
REMARK  101  A    between atoms: _285  and  _286
REMARK  102  A    between atoms: _285  and  _288
REMARK  103  A    between atoms: _288  and  _289
REMARK  104  A    between atoms: _289  and  _290
REMARK  105  A    between atoms: _290  and  _291
REMARK  106  A    between atoms: _300  and  _302
REMARK  107  A    between atoms: _302  and  _303
REMARK  108  A    between atoms: _302  and  _305
REMARK  109  A    between atoms: _305  and  _306
REMARK  110  A    between atoms: _310  and  FE_383
REMARK  111  A    between atoms: _311  and  _313
REMARK  112  A    between atoms: _313  and  _314
REMARK  113  A    between atoms: _313  and  _316
REMARK  114  A    between atoms: _316  and  _317
REMARK  115  A    between atoms: _321  and  FE_383
REMARK  116  A    between atoms: _322  and  _324
REMARK  117  A    between atoms: _324  and  _325
REMARK  118  A    between atoms: _324  and  _327
REMARK  119  A    between atoms: _328  and  _329
REMARK  120  A    between atoms: _334  and  _336
REMARK  121  A    between atoms: _336  and  _337
REMARK  122  A    between atoms: _336  and  _339
REMARK  123  A    between atoms: _339  and  _340
REMARK  124  A    between atoms: _345  and  _346
REMARK  125  A    between atoms: _348  and  _350
REMARK  126  A    between atoms: _350  and  _351
REMARK  127  A    between atoms: _350  and  _353
REMARK  128  A    between atoms: _355  and  _357
REMARK  129  A    between atoms: _357  and  _358
REMARK  130  A    between atoms: _357  and  _360
REMARK  131  A    between atoms: _360  and  _361
REMARK  132  A    between atoms: _364  and  _366
REMARK  133  A    between atoms: _366  and  _367
REMARK  134  A    between atoms: _366  and  _369
REMARK  135  A    between atoms: _369  and  _370
REMARK  136  A    between atoms: _370  and  _371
REMARK  137  A    between atoms: _374  and  _376
REMARK  138  A    between atoms: _376  and  _377
REMARK  139  A    between atoms: _376  and  _379
REMARK  140  A    between atoms: _379  and  _380
REMARK  141  A    between atoms: _380  and  _381
REMARK                            x       y       z     vdW  Elec       q    Type
REMARK                         _______ _______ _______ _____ _____    ______ ____
ROOT
ATOM      1  O   HOH     1      16.524  16.573  40.791  0.00  0.00    +0.000 OA
ENDROOT
TORSDOF 0
