REMARK  Name = ../refined-set-2016/4crb/4crb_pocket.pdb
REMARK  246 active torsions:
REMARK  status: ('A' for Active; 'I' for Inactive)
REMARK    1  A    between atoms: _1  and  _5
REMARK    2  A    between atoms: _5  and  _6
REMARK    3  A    between atoms: _5  and  _8
REMARK    4  A    between atoms: _8  and  _9
REMARK    5  A    between atoms: _12  and  _14
REMARK    6  A    between atoms: _14  and  _15
REMARK    7  A    between atoms: _14  and  _17
REMARK    8  A    between atoms: _20  and  _22
REMARK    9  A    between atoms: _22  and  _23
REMARK   10  A    between atoms: _22  and  _25
REMARK   11  A    between atoms: _25  and  _26
REMARK   12  A    between atoms: _29  and  _31
REMARK   13  A    between atoms: _31  and  _32
REMARK   14  A    between atoms: _31  and  _34
REMARK   15  A    between atoms: _34  and  _35
REMARK   16  A    between atoms: _38  and  _40
REMARK   17  A    between atoms: _40  and  _41
REMARK   18  A    between atoms: _40  and  _43
REMARK   19  A    between atoms: _43  and  _44
REMARK   20  A    between atoms: _47  and  _49
REMARK   21  A    between atoms: _49  and  _50
REMARK   22  A    between atoms: _49  and  _52
REMARK   23  A    between atoms: _52  and  _53
REMARK   24  A    between atoms: _56  and  _58
REMARK   25  A    between atoms: _58  and  _59
REMARK   26  A    between atoms: _58  and  _61
REMARK   27  A    between atoms: _61  and  _62
REMARK   28  A    between atoms: _62  and  _63
REMARK   29  A    between atoms: _68  and  _70
REMARK   30  A    between atoms: _70  and  _71
REMARK   31  A    between atoms: _70  and  _73
REMARK   32  A    between atoms: _73  and  _74
REMARK   33  A    between atoms: _74  and  _75
REMARK   34  A    between atoms: _75  and  _76
REMARK   35  A    between atoms: _85  and  _87
REMARK   36  A    between atoms: _87  and  _88
REMARK   37  A    between atoms: _87  and  _90
REMARK   38  A    between atoms: _90  and  _91
REMARK   39  A    between atoms: _96  and  _98
REMARK   40  A    between atoms: _98  and  _99
REMARK   41  A    between atoms: _98  and  _101
REMARK   42  A    between atoms: _101  and  _102
REMARK   43  A    between atoms: _105  and  _107
REMARK   44  A    between atoms: _107  and  _108
REMARK   45  A    between atoms: _107  and  _110
REMARK   46  A    between atoms: _110  and  _111
REMARK   47  A    between atoms: _111  and  _146
REMARK   48  A    between atoms: _112  and  _114
REMARK   49  A    between atoms: _114  and  _115
REMARK   50  A    between atoms: _117  and  _119
REMARK   51  A    between atoms: _119  and  _120
REMARK   52  A    between atoms: _123  and  _125
REMARK   53  A    between atoms: _125  and  _126
REMARK   54  A    between atoms: _129  and  _131
REMARK   55  A    between atoms: _131  and  _132
REMARK   56  A    between atoms: _131  and  _134
REMARK   57  A    between atoms: _134  and  _135
REMARK   58  A    between atoms: _140  and  _142
REMARK   59  A    between atoms: _142  and  _143
REMARK   60  A    between atoms: _142  and  _145
REMARK   61  A    between atoms: _145  and  _146
REMARK   62  A    between atoms: _147  and  _149
REMARK   63  A    between atoms: _149  and  _150
REMARK   64  A    between atoms: _149  and  _152
REMARK   65  A    between atoms: _152  and  _153
REMARK   66  A    between atoms: _159  and  _161
REMARK   67  A    between atoms: _161  and  _162
REMARK   68  A    between atoms: _161  and  _164
REMARK   69  A    between atoms: _164  and  _165
REMARK   70  A    between atoms: _170  and  _171
REMARK   71  A    between atoms: _173  and  _175
REMARK   72  A    between atoms: _175  and  _176
REMARK   73  A    between atoms: _178  and  _180
REMARK   74  A    between atoms: _180  and  _181
REMARK   75  A    between atoms: _180  and  _183
REMARK   76  A    between atoms: _186  and  _188
REMARK   77  A    between atoms: _188  and  _189
REMARK   78  A    between atoms: _192  and  _194
REMARK   79  A    between atoms: _194  and  _195
REMARK   80  A    between atoms: _194  and  _197
REMARK   81  A    between atoms: _197  and  _198
REMARK   82  A    between atoms: _201  and  _203
REMARK   83  A    between atoms: _203  and  _204
REMARK   84  A    between atoms: _203  and  _206
REMARK   85  A    between atoms: _209  and  _211
REMARK   86  A    between atoms: _211  and  _212
REMARK   87  A    between atoms: _211  and  _214
REMARK   88  A    between atoms: _214  and  _215
REMARK   89  A    between atoms: _225  and  _227
REMARK   90  A    between atoms: _227  and  _228
REMARK   91  A    between atoms: _230  and  _232
REMARK   92  A    between atoms: _232  and  _233
REMARK   93  A    between atoms: _232  and  _235
REMARK   94  A    between atoms: _235  and  _236
REMARK   95  A    between atoms: _241  and  _242
REMARK   96  A    between atoms: _244  and  _246
REMARK   97  A    between atoms: _246  and  _247
REMARK   98  A    between atoms: _246  and  _249
REMARK   99  A    between atoms: _249  and  _250
REMARK  100  A    between atoms: _250  and  _251
REMARK  101  A    between atoms: _251  and  _252
REMARK  102  A    between atoms: _252  and  _253
REMARK  103  A    between atoms: _257  and  _259
REMARK  104  A    between atoms: _259  and  _260
REMARK  105  A    between atoms: _259  and  _262
REMARK  106  A    between atoms: _262  and  _263
REMARK  107  A    between atoms: _266  and  _268
REMARK  108  A    between atoms: _268  and  _269
REMARK  109  A    between atoms: _268  and  _271
REMARK  110  A    between atoms: _271  and  _272
REMARK  111  A    between atoms: _272  and  _273
REMARK  112  A    between atoms: _273  and  _274
REMARK  113  A    between atoms: _283  and  _285
REMARK  114  A    between atoms: _285  and  _286
REMARK  115  A    between atoms: _285  and  _288
REMARK  116  A    between atoms: _288  and  _289
REMARK  117  A    between atoms: _292  and  _294
REMARK  118  A    between atoms: _294  and  _295
REMARK  119  A    between atoms: _294  and  _297
REMARK  120  A    between atoms: _297  and  _298
REMARK  121  A    between atoms: _298  and  _299
REMARK  122  A    between atoms: _299  and  _300
REMARK  123  A    between atoms: _300  and  _301
REMARK  124  A    between atoms: _305  and  _307
REMARK  125  A    between atoms: _307  and  _308
REMARK  126  A    between atoms: _307  and  _310
REMARK  127  A    between atoms: _310  and  _311
REMARK  128  A    between atoms: _314  and  _316
REMARK  129  A    between atoms: _316  and  _317
REMARK  130  A    between atoms: _316  and  _319
REMARK  131  A    between atoms: _319  and  _320
REMARK  132  A    between atoms: _320  and  _321
REMARK  133  A    between atoms: _326  and  _328
REMARK  134  A    between atoms: _328  and  _329
REMARK  135  A    between atoms: _328  and  _331
REMARK  136  A    between atoms: _331  and  _332
REMARK  137  A    between atoms: _335  and  _337
REMARK  138  A    between atoms: _337  and  _338
REMARK  139  A    between atoms: _337  and  _340
REMARK  140  A    between atoms: _340  and  _341
REMARK  141  A    between atoms: _346  and  _347
REMARK  142  A    between atoms: _349  and  _351
REMARK  143  A    between atoms: _351  and  _352
REMARK  144  A    between atoms: _351  and  _354
REMARK  145  A    between atoms: _354  and  _355
REMARK  146  A    between atoms: _358  and  _360
REMARK  147  A    between atoms: _360  and  _361
REMARK  148  A    between atoms: _360  and  _363
REMARK  149  A    between atoms: _365  and  _367
REMARK  150  A    between atoms: _367  and  _368
REMARK  151  A    between atoms: _371  and  _373
REMARK  152  A    between atoms: _373  and  _374
REMARK  153  A    between atoms: _373  and  _376
REMARK  154  A    between atoms: _376  and  _377
REMARK  155  A    between atoms: _377  and  _378
REMARK  156  A    between atoms: _378  and  _379
REMARK  157  A    between atoms: _379  and  _380
REMARK  158  A    between atoms: _384  and  _386
REMARK  159  A    between atoms: _386  and  _387
REMARK  160  A    between atoms: _386  and  _389
REMARK  161  A    between atoms: _389  and  _390
REMARK  162  A    between atoms: _393  and  _395
REMARK  163  A    between atoms: _395  and  _396
REMARK  164  A    between atoms: _399  and  _401
REMARK  165  A    between atoms: _401  and  _402
REMARK  166  A    between atoms: _401  and  _404
REMARK  167  A    between atoms: _404  and  _405
REMARK  168  A    between atoms: _405  and  _519
REMARK  169  A    between atoms: _406  and  _408
REMARK  170  A    between atoms: _408  and  _409
REMARK  171  A    between atoms: _408  and  _411
REMARK  172  A    between atoms: _411  and  _412
REMARK  173  A    between atoms: _412  and  _413
REMARK  174  A    between atoms: _413  and  _414
REMARK  175  A    between atoms: _414  and  _415
REMARK  176  A    between atoms: _419  and  _421
REMARK  177  A    between atoms: _421  and  _422
REMARK  178  A    between atoms: _424  and  _426
REMARK  179  A    between atoms: _426  and  _427
REMARK  180  A    between atoms: _426  and  _429
REMARK  181  A    between atoms: _429  and  _430
REMARK  182  A    between atoms: _433  and  _435
REMARK  183  A    between atoms: _435  and  _436
REMARK  184  A    between atoms: _435  and  _438
REMARK  185  A    between atoms: _438  and  _439
REMARK  186  A    between atoms: _441  and  _443
REMARK  187  A    between atoms: _443  and  _444
REMARK  188  A    between atoms: _446  and  _448
REMARK  189  A    between atoms: _448  and  _449
REMARK  190  A    between atoms: _451  and  _453
REMARK  191  A    between atoms: _453  and  _454
REMARK  192  A    between atoms: _453  and  _456
REMARK  193  A    between atoms: _456  and  _457
REMARK  194  A    between atoms: _460  and  _462
REMARK  195  A    between atoms: _462  and  _463
REMARK  196  A    between atoms: _462  and  _465
REMARK  197  A    between atoms: _465  and  _466
REMARK  198  A    between atoms: _469  and  _471
REMARK  199  A    between atoms: _471  and  _472
REMARK  200  A    between atoms: _471  and  _474
REMARK  201  A    between atoms: _474  and  _475
REMARK  202  A    between atoms: _477  and  _479
REMARK  203  A    between atoms: _479  and  _480
REMARK  204  A    between atoms: _479  and  _482
REMARK  205  A    between atoms: _482  and  _483
REMARK  206  A    between atoms: _493  and  _495
REMARK  207  A    between atoms: _495  and  _496
REMARK  208  A    between atoms: _498  and  _500
REMARK  209  A    between atoms: _500  and  _501
REMARK  210  A    between atoms: _500  and  _503
REMARK  211  A    between atoms: _503  and  _504
REMARK  212  A    between atoms: _504  and  _505
REMARK  213  A    between atoms: _508  and  _510
REMARK  214  A    between atoms: _510  and  _511
REMARK  215  A    between atoms: _513  and  _515
REMARK  216  A    between atoms: _515  and  _516
REMARK  217  A    between atoms: _515  and  _518
REMARK  218  A    between atoms: _518  and  _519
REMARK  219  A    between atoms: _520  and  _522
REMARK  220  A    between atoms: _522  and  _523
REMARK  221  A    between atoms: _526  and  _528
REMARK  222  A    between atoms: _528  and  _529
REMARK  223  A    between atoms: _528  and  _531
REMARK  224  A    between atoms: _531  and  _532
REMARK  225  A    between atoms: _532  and  _533
REMARK  226  A    between atoms: _538  and  _540
REMARK  227  A    between atoms: _540  and  _541
REMARK  228  A    between atoms: _540  and  _543
REMARK  229  A    between atoms: _543  and  _544
REMARK  230  A    between atoms: _544  and  _545
REMARK  231  A    between atoms: _545  and  _546
REMARK  232  A    between atoms: _556  and  _557
REMARK  233  A    between atoms: _562  and  _564
REMARK  234  A    between atoms: _564  and  _565
REMARK  235  A    between atoms: _567  and  _569
REMARK  236  A    between atoms: _569  and  _570
REMARK  237  A    between atoms: _569  and  _572
REMARK  238  A    between atoms: _575  and  _577
REMARK  239  A    between atoms: _577  and  _578
REMARK  240  A    between atoms: _577  and  _580
REMARK  241  A    between atoms: _580  and  _581
REMARK  242  A    between atoms: _586  and  _587
REMARK  243  A    between atoms: _589  and  _591
REMARK  244  A    between atoms: _591  and  _592
REMARK  245  A    between atoms: _591  and  _594
REMARK  246  A    between atoms: _594  and  _595
REMARK                            x       y       z     vdW  Elec       q    Type
REMARK                         _______ _______ _______ _____ _____    ______ ____
ROOT
ATOM      1  C   ILE A   1      19.339   2.030  47.729  0.00  0.00    +0.202 C 
ATOM      2  O   ILE A   1      19.401   0.904  48.195  0.00  0.00    -0.277 OA
ATOM      3  N   VAL A   2      18.202   2.700  47.611  0.00  0.00    -0.301 N 
ATOM      4  H   VAL A   2      18.222   3.668  47.232  0.00  0.00    +0.150 HD
ENDROOT
BRANCH   1   5
ATOM      5  CA  ILE A   1      20.597   2.736  47.220  0.00  0.00    +0.013 C 
BRANCH   5   6
ATOM      6  N   ILE A   1      21.604   2.792  48.312  0.00  0.00    +0.387 N 
ATOM      7  H1  ILE A   1      21.210   3.318  49.118  0.00  0.00    -0.089 HD
ATOM      8  H2  ILE A   1      21.843   1.825  48.611  0.00  0.00    -0.089 HD
ATOM      9  H3  ILE A   1      22.460   3.272  47.968  0.00  0.00    -0.089 HD
ENDBRANCH   5   6
BRANCH   5  10
ATOM     10  CB  ILE A   1      21.108   1.992  45.959  0.00  0.00    -0.011 C 
ATOM     11  CG2 ILE A   1      20.020   1.954  44.889  0.00  0.00    -0.002 C 
BRANCH  10  12
ATOM     12  CG1 ILE A   1      22.405   2.622  45.405  0.00  0.00    -0.002 C 
ATOM     13  CD1 ILE A   1      22.251   3.958  44.706  0.00  0.00    -0.000 C 
ENDBRANCH  10  12
ENDBRANCH   5  10
ENDBRANCH   1   5
BRANCH   3  14
ATOM     14  CA  VAL A   2      16.915   2.113  48.000  0.00  0.00    +0.137 C 
BRANCH  14  15
ATOM     15  CB  VAL A   2      15.947   3.176  48.548  0.00  0.00    +0.026 C 
ATOM     16  CG2 VAL A   2      16.556   3.887  49.751  0.00  0.00    +0.002 C 
ATOM     17  CG1 VAL A   2      14.595   2.546  48.896  0.00  0.00    +0.002 C 
ENDBRANCH  14  15
BRANCH  14  18
ATOM     18  C   VAL A   2      16.291   1.512  46.744  0.00  0.00    +0.227 C 
ATOM     19  O   VAL A   2      16.295   2.146  45.693  0.00  0.00    -0.286 OA
ENDBRANCH  14  18
ENDBRANCH   3  14
TORSDOF 7
REMARK  Name = ../refined-set-2016/4crb/4crb_pocket.pdb
REMARK  246 active torsions:
REMARK  status: ('A' for Active; 'I' for Inactive)
REMARK    1  A    between atoms: _1  and  _5
REMARK    2  A    between atoms: _5  and  _6
REMARK    3  A    between atoms: _5  and  _8
REMARK    4  A    between atoms: _8  and  _9
REMARK    5  A    between atoms: _12  and  _14
REMARK    6  A    between atoms: _14  and  _15
REMARK    7  A    between atoms: _14  and  _17
REMARK    8  A    between atoms: _20  and  _22
REMARK    9  A    between atoms: _22  and  _23
REMARK   10  A    between atoms: _22  and  _25
REMARK   11  A    between atoms: _25  and  _26
REMARK   12  A    between atoms: _29  and  _31
REMARK   13  A    between atoms: _31  and  _32
REMARK   14  A    between atoms: _31  and  _34
REMARK   15  A    between atoms: _34  and  _35
REMARK   16  A    between atoms: _38  and  _40
REMARK   17  A    between atoms: _40  and  _41
REMARK   18  A    between atoms: _40  and  _43
REMARK   19  A    between atoms: _43  and  _44
REMARK   20  A    between atoms: _47  and  _49
REMARK   21  A    between atoms: _49  and  _50
REMARK   22  A    between atoms: _49  and  _52
REMARK   23  A    between atoms: _52  and  _53
REMARK   24  A    between atoms: _56  and  _58
REMARK   25  A    between atoms: _58  and  _59
REMARK   26  A    between atoms: _58  and  _61
REMARK   27  A    between atoms: _61  and  _62
REMARK   28  A    between atoms: _62  and  _63
REMARK   29  A    between atoms: _68  and  _70
REMARK   30  A    between atoms: _70  and  _71
REMARK   31  A    between atoms: _70  and  _73
REMARK   32  A    between atoms: _73  and  _74
REMARK   33  A    between atoms: _74  and  _75
REMARK   34  A    between atoms: _75  and  _76
REMARK   35  A    between atoms: _85  and  _87
REMARK   36  A    between atoms: _87  and  _88
REMARK   37  A    between atoms: _87  and  _90
REMARK   38  A    between atoms: _90  and  _91
REMARK   39  A    between atoms: _96  and  _98
REMARK   40  A    between atoms: _98  and  _99
REMARK   41  A    between atoms: _98  and  _101
REMARK   42  A    between atoms: _101  and  _102
REMARK   43  A    between atoms: _105  and  _107
REMARK   44  A    between atoms: _107  and  _108
REMARK   45  A    between atoms: _107  and  _110
REMARK   46  A    between atoms: _110  and  _111
REMARK   47  A    between atoms: _111  and  _146
REMARK   48  A    between atoms: _112  and  _114
REMARK   49  A    between atoms: _114  and  _115
REMARK   50  A    between atoms: _117  and  _119
REMARK   51  A    between atoms: _119  and  _120
REMARK   52  A    between atoms: _123  and  _125
REMARK   53  A    between atoms: _125  and  _126
REMARK   54  A    between atoms: _129  and  _131
REMARK   55  A    between atoms: _131  and  _132
REMARK   56  A    between atoms: _131  and  _134
REMARK   57  A    between atoms: _134  and  _135
REMARK   58  A    between atoms: _140  and  _142
REMARK   59  A    between atoms: _142  and  _143
REMARK   60  A    between atoms: _142  and  _145
REMARK   61  A    between atoms: _145  and  _146
REMARK   62  A    between atoms: _147  and  _149
REMARK   63  A    between atoms: _149  and  _150
REMARK   64  A    between atoms: _149  and  _152
REMARK   65  A    between atoms: _152  and  _153
REMARK   66  A    between atoms: _159  and  _161
REMARK   67  A    between atoms: _161  and  _162
REMARK   68  A    between atoms: _161  and  _164
REMARK   69  A    between atoms: _164  and  _165
REMARK   70  A    between atoms: _170  and  _171
REMARK   71  A    between atoms: _173  and  _175
REMARK   72  A    between atoms: _175  and  _176
REMARK   73  A    between atoms: _178  and  _180
REMARK   74  A    between atoms: _180  and  _181
REMARK   75  A    between atoms: _180  and  _183
REMARK   76  A    between atoms: _186  and  _188
REMARK   77  A    between atoms: _188  and  _189
REMARK   78  A    between atoms: _192  and  _194
REMARK   79  A    between atoms: _194  and  _195
REMARK   80  A    between atoms: _194  and  _197
REMARK   81  A    between atoms: _197  and  _198
REMARK   82  A    between atoms: _201  and  _203
REMARK   83  A    between atoms: _203  and  _204
REMARK   84  A    between atoms: _203  and  _206
REMARK   85  A    between atoms: _209  and  _211
REMARK   86  A    between atoms: _211  and  _212
REMARK   87  A    between atoms: _211  and  _214
REMARK   88  A    between atoms: _214  and  _215
REMARK   89  A    between atoms: _225  and  _227
REMARK   90  A    between atoms: _227  and  _228
REMARK   91  A    between atoms: _230  and  _232
REMARK   92  A    between atoms: _232  and  _233
REMARK   93  A    between atoms: _232  and  _235
REMARK   94  A    between atoms: _235  and  _236
REMARK   95  A    between atoms: _241  and  _242
REMARK   96  A    between atoms: _244  and  _246
REMARK   97  A    between atoms: _246  and  _247
REMARK   98  A    between atoms: _246  and  _249
REMARK   99  A    between atoms: _249  and  _250
REMARK  100  A    between atoms: _250  and  _251
REMARK  101  A    between atoms: _251  and  _252
REMARK  102  A    between atoms: _252  and  _253
REMARK  103  A    between atoms: _257  and  _259
REMARK  104  A    between atoms: _259  and  _260
REMARK  105  A    between atoms: _259  and  _262
REMARK  106  A    between atoms: _262  and  _263
REMARK  107  A    between atoms: _266  and  _268
REMARK  108  A    between atoms: _268  and  _269
REMARK  109  A    between atoms: _268  and  _271
REMARK  110  A    between atoms: _271  and  _272
REMARK  111  A    between atoms: _272  and  _273
REMARK  112  A    between atoms: _273  and  _274
REMARK  113  A    between atoms: _283  and  _285
REMARK  114  A    between atoms: _285  and  _286
REMARK  115  A    between atoms: _285  and  _288
REMARK  116  A    between atoms: _288  and  _289
REMARK  117  A    between atoms: _292  and  _294
REMARK  118  A    between atoms: _294  and  _295
REMARK  119  A    between atoms: _294  and  _297
REMARK  120  A    between atoms: _297  and  _298
REMARK  121  A    between atoms: _298  and  _299
REMARK  122  A    between atoms: _299  and  _300
REMARK  123  A    between atoms: _300  and  _301
REMARK  124  A    between atoms: _305  and  _307
REMARK  125  A    between atoms: _307  and  _308
REMARK  126  A    between atoms: _307  and  _310
REMARK  127  A    between atoms: _310  and  _311
REMARK  128  A    between atoms: _314  and  _316
REMARK  129  A    between atoms: _316  and  _317
REMARK  130  A    between atoms: _316  and  _319
REMARK  131  A    between atoms: _319  and  _320
REMARK  132  A    between atoms: _320  and  _321
REMARK  133  A    between atoms: _326  and  _328
REMARK  134  A    between atoms: _328  and  _329
REMARK  135  A    between atoms: _328  and  _331
REMARK  136  A    between atoms: _331  and  _332
REMARK  137  A    between atoms: _335  and  _337
REMARK  138  A    between atoms: _337  and  _338
REMARK  139  A    between atoms: _337  and  _340
REMARK  140  A    between atoms: _340  and  _341
REMARK  141  A    between atoms: _346  and  _347
REMARK  142  A    between atoms: _349  and  _351
REMARK  143  A    between atoms: _351  and  _352
REMARK  144  A    between atoms: _351  and  _354
REMARK  145  A    between atoms: _354  and  _355
REMARK  146  A    between atoms: _358  and  _360
REMARK  147  A    between atoms: _360  and  _361
REMARK  148  A    between atoms: _360  and  _363
REMARK  149  A    between atoms: _365  and  _367
REMARK  150  A    between atoms: _367  and  _368
REMARK  151  A    between atoms: _371  and  _373
REMARK  152  A    between atoms: _373  and  _374
REMARK  153  A    between atoms: _373  and  _376
REMARK  154  A    between atoms: _376  and  _377
REMARK  155  A    between atoms: _377  and  _378
REMARK  156  A    between atoms: _378  and  _379
REMARK  157  A    between atoms: _379  and  _380
REMARK  158  A    between atoms: _384  and  _386
REMARK  159  A    between atoms: _386  and  _387
REMARK  160  A    between atoms: _386  and  _389
REMARK  161  A    between atoms: _389  and  _390
REMARK  162  A    between atoms: _393  and  _395
REMARK  163  A    between atoms: _395  and  _396
REMARK  164  A    between atoms: _399  and  _401
REMARK  165  A    between atoms: _401  and  _402
REMARK  166  A    between atoms: _401  and  _404
REMARK  167  A    between atoms: _404  and  _405
REMARK  168  A    between atoms: _405  and  _519
REMARK  169  A    between atoms: _406  and  _408
REMARK  170  A    between atoms: _408  and  _409
REMARK  171  A    between atoms: _408  and  _411
REMARK  172  A    between atoms: _411  and  _412
REMARK  173  A    between atoms: _412  and  _413
REMARK  174  A    between atoms: _413  and  _414
REMARK  175  A    between atoms: _414  and  _415
REMARK  176  A    between atoms: _419  and  _421
REMARK  177  A    between atoms: _421  and  _422
REMARK  178  A    between atoms: _424  and  _426
REMARK  179  A    between atoms: _426  and  _427
REMARK  180  A    between atoms: _426  and  _429
REMARK  181  A    between atoms: _429  and  _430
REMARK  182  A    between atoms: _433  and  _435
REMARK  183  A    between atoms: _435  and  _436
REMARK  184  A    between atoms: _435  and  _438
REMARK  185  A    between atoms: _438  and  _439
REMARK  186  A    between atoms: _441  and  _443
REMARK  187  A    between atoms: _443  and  _444
REMARK  188  A    between atoms: _446  and  _448
REMARK  189  A    between atoms: _448  and  _449
REMARK  190  A    between atoms: _451  and  _453
REMARK  191  A    between atoms: _453  and  _454
REMARK  192  A    between atoms: _453  and  _456
REMARK  193  A    between atoms: _456  and  _457
REMARK  194  A    between atoms: _460  and  _462
REMARK  195  A    between atoms: _462  and  _463
REMARK  196  A    between atoms: _462  and  _465
REMARK  197  A    between atoms: _465  and  _466
REMARK  198  A    between atoms: _469  and  _471
REMARK  199  A    between atoms: _471  and  _472
REMARK  200  A    between atoms: _471  and  _474
REMARK  201  A    between atoms: _474  and  _475
REMARK  202  A    between atoms: _477  and  _479
REMARK  203  A    between atoms: _479  and  _480
REMARK  204  A    between atoms: _479  and  _482
REMARK  205  A    between atoms: _482  and  _483
REMARK  206  A    between atoms: _493  and  _495
REMARK  207  A    between atoms: _495  and  _496
REMARK  208  A    between atoms: _498  and  _500
REMARK  209  A    between atoms: _500  and  _501
REMARK  210  A    between atoms: _500  and  _503
REMARK  211  A    between atoms: _503  and  _504
REMARK  212  A    between atoms: _504  and  _505
REMARK  213  A    between atoms: _508  and  _510
REMARK  214  A    between atoms: _510  and  _511
REMARK  215  A    between atoms: _513  and  _515
REMARK  216  A    between atoms: _515  and  _516
REMARK  217  A    between atoms: _515  and  _518
REMARK  218  A    between atoms: _518  and  _519
REMARK  219  A    between atoms: _520  and  _522
REMARK  220  A    between atoms: _522  and  _523
REMARK  221  A    between atoms: _526  and  _528
REMARK  222  A    between atoms: _528  and  _529
REMARK  223  A    between atoms: _528  and  _531
REMARK  224  A    between atoms: _531  and  _532
REMARK  225  A    between atoms: _532  and  _533
REMARK  226  A    between atoms: _538  and  _540
REMARK  227  A    between atoms: _540  and  _541
REMARK  228  A    between atoms: _540  and  _543
REMARK  229  A    between atoms: _543  and  _544
REMARK  230  A    between atoms: _544  and  _545
REMARK  231  A    between atoms: _545  and  _546
REMARK  232  A    between atoms: _556  and  _557
REMARK  233  A    between atoms: _562  and  _564
REMARK  234  A    between atoms: _564  and  _565
REMARK  235  A    between atoms: _567  and  _569
REMARK  236  A    between atoms: _569  and  _570
REMARK  237  A    between atoms: _569  and  _572
REMARK  238  A    between atoms: _575  and  _577
REMARK  239  A    between atoms: _577  and  _578
REMARK  240  A    between atoms: _577  and  _580
REMARK  241  A    between atoms: _580  and  _581
REMARK  242  A    between atoms: _586  and  _587
REMARK  243  A    between atoms: _589  and  _591
REMARK  244  A    between atoms: _591  and  _592
REMARK  245  A    between atoms: _591  and  _594
REMARK  246  A    between atoms: _594  and  _595
REMARK                            x       y       z     vdW  Elec       q    Type
REMARK                         _______ _______ _______ _____ _____    ______ ____
ROOT
ATOM      1  C   THR A   1      35.729   4.729  47.874  0.00  0.00    +0.241 C 
ATOM      2  N   LEU A   2      35.371   5.881  48.428  0.00  0.00    -0.298 N 
ATOM      3  H   LEU A   2      34.376   6.175  48.361  0.00  0.00    +0.150 HD
ATOM      4  O   THR A   1      36.895   4.324  47.837  0.00  0.00    -0.274 OA
ENDROOT
BRANCH   1   5
ATOM      5  CA  THR A   1      34.599   3.958  47.211  0.00  0.00    +0.172 C 
BRANCH   5   6
ATOM      6  N   THR A   1      34.957   3.751  45.818  0.00  0.00    -0.236 NA
ATOM      7  H   THR A   1      35.722   3.081  45.599  0.00  0.00    +0.142 HD
ENDBRANCH   5   6
BRANCH   5   8
ATOM      8  CB  THR A   1      34.283   2.634  47.956  0.00  0.00    +0.135 C 
ATOM      9  CG2 THR A   1      35.329   1.566  47.733  0.00  0.00    +0.034 C 
BRANCH   8  10
ATOM     10  OG1 THR A   1      34.148   2.887  49.354  0.00  0.00    -0.383 OA
ATOM     11  HG1 THR A   1      33.411   3.531  49.502  0.00  0.00    +0.210 HD
ENDBRANCH   8  10
ENDBRANCH   5   8
ENDBRANCH   1   5
BRANCH   2  12
ATOM     12  CA  LEU A   2      36.303   6.750  49.122  0.00  0.00    +0.137 C 
BRANCH  12  13
ATOM     13  C   LEU A   2      36.158   6.426  50.593  0.00  0.00    +0.227 C 
ATOM     14  O   LEU A   2      35.055   6.490  51.141  0.00  0.00    -0.286 OA
ENDBRANCH  12  13
BRANCH  12  15
ATOM     15  CB  LEU A   2      35.952   8.209  48.859  0.00  0.00    +0.028 C 
BRANCH  15  16
ATOM     16  CG  LEU A   2      36.750   9.290  49.590  0.00  0.00    +0.002 C 
ATOM     17  CD2 LEU A   2      36.059  10.634  49.415  0.00  0.00    +0.000 C 
ATOM     18  CD1 LEU A   2      38.201   9.368  49.125  0.00  0.00    +0.000 C 
ENDBRANCH  15  16
ENDBRANCH  12  15
ENDBRANCH   2  12
TORSDOF 8
REMARK  Name = ../refined-set-2016/4crb/4crb_pocket.pdb
REMARK  246 active torsions:
REMARK  status: ('A' for Active; 'I' for Inactive)
REMARK    1  A    between atoms: _1  and  _5
REMARK    2  A    between atoms: _5  and  _6
REMARK    3  A    between atoms: _5  and  _8
REMARK    4  A    between atoms: _8  and  _9
REMARK    5  A    between atoms: _12  and  _14
REMARK    6  A    between atoms: _14  and  _15
REMARK    7  A    between atoms: _14  and  _17
REMARK    8  A    between atoms: _20  and  _22
REMARK    9  A    between atoms: _22  and  _23
REMARK   10  A    between atoms: _22  and  _25
REMARK   11  A    between atoms: _25  and  _26
REMARK   12  A    between atoms: _29  and  _31
REMARK   13  A    between atoms: _31  and  _32
REMARK   14  A    between atoms: _31  and  _34
REMARK   15  A    between atoms: _34  and  _35
REMARK   16  A    between atoms: _38  and  _40
REMARK   17  A    between atoms: _40  and  _41
REMARK   18  A    between atoms: _40  and  _43
REMARK   19  A    between atoms: _43  and  _44
REMARK   20  A    between atoms: _47  and  _49
REMARK   21  A    between atoms: _49  and  _50
REMARK   22  A    between atoms: _49  and  _52
REMARK   23  A    between atoms: _52  and  _53
REMARK   24  A    between atoms: _56  and  _58
REMARK   25  A    between atoms: _58  and  _59
REMARK   26  A    between atoms: _58  and  _61
REMARK   27  A    between atoms: _61  and  _62
REMARK   28  A    between atoms: _62  and  _63
REMARK   29  A    between atoms: _68  and  _70
REMARK   30  A    between atoms: _70  and  _71
REMARK   31  A    between atoms: _70  and  _73
REMARK   32  A    between atoms: _73  and  _74
REMARK   33  A    between atoms: _74  and  _75
REMARK   34  A    between atoms: _75  and  _76
REMARK   35  A    between atoms: _85  and  _87
REMARK   36  A    between atoms: _87  and  _88
REMARK   37  A    between atoms: _87  and  _90
REMARK   38  A    between atoms: _90  and  _91
REMARK   39  A    between atoms: _96  and  _98
REMARK   40  A    between atoms: _98  and  _99
REMARK   41  A    between atoms: _98  and  _101
REMARK   42  A    between atoms: _101  and  _102
REMARK   43  A    between atoms: _105  and  _107
REMARK   44  A    between atoms: _107  and  _108
REMARK   45  A    between atoms: _107  and  _110
REMARK   46  A    between atoms: _110  and  _111
REMARK   47  A    between atoms: _111  and  _146
REMARK   48  A    between atoms: _112  and  _114
REMARK   49  A    between atoms: _114  and  _115
REMARK   50  A    between atoms: _117  and  _119
REMARK   51  A    between atoms: _119  and  _120
REMARK   52  A    between atoms: _123  and  _125
REMARK   53  A    between atoms: _125  and  _126
REMARK   54  A    between atoms: _129  and  _131
REMARK   55  A    between atoms: _131  and  _132
REMARK   56  A    between atoms: _131  and  _134
REMARK   57  A    between atoms: _134  and  _135
REMARK   58  A    between atoms: _140  and  _142
REMARK   59  A    between atoms: _142  and  _143
REMARK   60  A    between atoms: _142  and  _145
REMARK   61  A    between atoms: _145  and  _146
REMARK   62  A    between atoms: _147  and  _149
REMARK   63  A    between atoms: _149  and  _150
REMARK   64  A    between atoms: _149  and  _152
REMARK   65  A    between atoms: _152  and  _153
REMARK   66  A    between atoms: _159  and  _161
REMARK   67  A    between atoms: _161  and  _162
REMARK   68  A    between atoms: _161  and  _164
REMARK   69  A    between atoms: _164  and  _165
REMARK   70  A    between atoms: _170  and  _171
REMARK   71  A    between atoms: _173  and  _175
REMARK   72  A    between atoms: _175  and  _176
REMARK   73  A    between atoms: _178  and  _180
REMARK   74  A    between atoms: _180  and  _181
REMARK   75  A    between atoms: _180  and  _183
REMARK   76  A    between atoms: _186  and  _188
REMARK   77  A    between atoms: _188  and  _189
REMARK   78  A    between atoms: _192  and  _194
REMARK   79  A    between atoms: _194  and  _195
REMARK   80  A    between atoms: _194  and  _197
REMARK   81  A    between atoms: _197  and  _198
REMARK   82  A    between atoms: _201  and  _203
REMARK   83  A    between atoms: _203  and  _204
REMARK   84  A    between atoms: _203  and  _206
REMARK   85  A    between atoms: _209  and  _211
REMARK   86  A    between atoms: _211  and  _212
REMARK   87  A    between atoms: _211  and  _214
REMARK   88  A    between atoms: _214  and  _215
REMARK   89  A    between atoms: _225  and  _227
REMARK   90  A    between atoms: _227  and  _228
REMARK   91  A    between atoms: _230  and  _232
REMARK   92  A    between atoms: _232  and  _233
REMARK   93  A    between atoms: _232  and  _235
REMARK   94  A    between atoms: _235  and  _236
REMARK   95  A    between atoms: _241  and  _242
REMARK   96  A    between atoms: _244  and  _246
REMARK   97  A    between atoms: _246  and  _247
REMARK   98  A    between atoms: _246  and  _249
REMARK   99  A    between atoms: _249  and  _250
REMARK  100  A    between atoms: _250  and  _251
REMARK  101  A    between atoms: _251  and  _252
REMARK  102  A    between atoms: _252  and  _253
REMARK  103  A    between atoms: _257  and  _259
REMARK  104  A    between atoms: _259  and  _260
REMARK  105  A    between atoms: _259  and  _262
REMARK  106  A    between atoms: _262  and  _263
REMARK  107  A    between atoms: _266  and  _268
REMARK  108  A    between atoms: _268  and  _269
REMARK  109  A    between atoms: _268  and  _271
REMARK  110  A    between atoms: _271  and  _272
REMARK  111  A    between atoms: _272  and  _273
REMARK  112  A    between atoms: _273  and  _274
REMARK  113  A    between atoms: _283  and  _285
REMARK  114  A    between atoms: _285  and  _286
REMARK  115  A    between atoms: _285  and  _288
REMARK  116  A    between atoms: _288  and  _289
REMARK  117  A    between atoms: _292  and  _294
REMARK  118  A    between atoms: _294  and  _295
REMARK  119  A    between atoms: _294  and  _297
REMARK  120  A    between atoms: _297  and  _298
REMARK  121  A    between atoms: _298  and  _299
REMARK  122  A    between atoms: _299  and  _300
REMARK  123  A    between atoms: _300  and  _301
REMARK  124  A    between atoms: _305  and  _307
REMARK  125  A    between atoms: _307  and  _308
REMARK  126  A    between atoms: _307  and  _310
REMARK  127  A    between atoms: _310  and  _311
REMARK  128  A    between atoms: _314  and  _316
REMARK  129  A    between atoms: _316  and  _317
REMARK  130  A    between atoms: _316  and  _319
REMARK  131  A    between atoms: _319  and  _320
REMARK  132  A    between atoms: _320  and  _321
REMARK  133  A    between atoms: _326  and  _328
REMARK  134  A    between atoms: _328  and  _329
REMARK  135  A    between atoms: _328  and  _331
REMARK  136  A    between atoms: _331  and  _332
REMARK  137  A    between atoms: _335  and  _337
REMARK  138  A    between atoms: _337  and  _338
REMARK  139  A    between atoms: _337  and  _340
REMARK  140  A    between atoms: _340  and  _341
REMARK  141  A    between atoms: _346  and  _347
REMARK  142  A    between atoms: _349  and  _351
REMARK  143  A    between atoms: _351  and  _352
REMARK  144  A    between atoms: _351  and  _354
REMARK  145  A    between atoms: _354  and  _355
REMARK  146  A    between atoms: _358  and  _360
REMARK  147  A    between atoms: _360  and  _361
REMARK  148  A    between atoms: _360  and  _363
REMARK  149  A    between atoms: _365  and  _367
REMARK  150  A    between atoms: _367  and  _368
REMARK  151  A    between atoms: _371  and  _373
REMARK  152  A    between atoms: _373  and  _374
REMARK  153  A    between atoms: _373  and  _376
REMARK  154  A    between atoms: _376  and  _377
REMARK  155  A    between atoms: _377  and  _378
REMARK  156  A    between atoms: _378  and  _379
REMARK  157  A    between atoms: _379  and  _380
REMARK  158  A    between atoms: _384  and  _386
REMARK  159  A    between atoms: _386  and  _387
REMARK  160  A    between atoms: _386  and  _389
REMARK  161  A    between atoms: _389  and  _390
REMARK  162  A    between atoms: _393  and  _395
REMARK  163  A    between atoms: _395  and  _396
REMARK  164  A    between atoms: _399  and  _401
REMARK  165  A    between atoms: _401  and  _402
REMARK  166  A    between atoms: _401  and  _404
REMARK  167  A    between atoms: _404  and  _405
REMARK  168  A    between atoms: _405  and  _519
REMARK  169  A    between atoms: _406  and  _408
REMARK  170  A    between atoms: _408  and  _409
REMARK  171  A    between atoms: _408  and  _411
REMARK  172  A    between atoms: _411  and  _412
REMARK  173  A    between atoms: _412  and  _413
REMARK  174  A    between atoms: _413  and  _414
REMARK  175  A    between atoms: _414  and  _415
REMARK  176  A    between atoms: _419  and  _421
REMARK  177  A    between atoms: _421  and  _422
REMARK  178  A    between atoms: _424  and  _426
REMARK  179  A    between atoms: _426  and  _427
REMARK  180  A    between atoms: _426  and  _429
REMARK  181  A    between atoms: _429  and  _430
REMARK  182  A    between atoms: _433  and  _435
REMARK  183  A    between atoms: _435  and  _436
REMARK  184  A    between atoms: _435  and  _438
REMARK  185  A    between atoms: _438  and  _439
REMARK  186  A    between atoms: _441  and  _443
REMARK  187  A    between atoms: _443  and  _444
REMARK  188  A    between atoms: _446  and  _448
REMARK  189  A    between atoms: _448  and  _449
REMARK  190  A    between atoms: _451  and  _453
REMARK  191  A    between atoms: _453  and  _454
REMARK  192  A    between atoms: _453  and  _456
REMARK  193  A    between atoms: _456  and  _457
REMARK  194  A    between atoms: _460  and  _462
REMARK  195  A    between atoms: _462  and  _463
REMARK  196  A    between atoms: _462  and  _465
REMARK  197  A    between atoms: _465  and  _466
REMARK  198  A    between atoms: _469  and  _471
REMARK  199  A    between atoms: _471  and  _472
REMARK  200  A    between atoms: _471  and  _474
REMARK  201  A    between atoms: _474  and  _475
REMARK  202  A    between atoms: _477  and  _479
REMARK  203  A    between atoms: _479  and  _480
REMARK  204  A    between atoms: _479  and  _482
REMARK  205  A    between atoms: _482  and  _483
REMARK  206  A    between atoms: _493  and  _495
REMARK  207  A    between atoms: _495  and  _496
REMARK  208  A    between atoms: _498  and  _500
REMARK  209  A    between atoms: _500  and  _501
REMARK  210  A    between atoms: _500  and  _503
REMARK  211  A    between atoms: _503  and  _504
REMARK  212  A    between atoms: _504  and  _505
REMARK  213  A    between atoms: _508  and  _510
REMARK  214  A    between atoms: _510  and  _511
REMARK  215  A    between atoms: _513  and  _515
REMARK  216  A    between atoms: _515  and  _516
REMARK  217  A    between atoms: _515  and  _518
REMARK  218  A    between atoms: _518  and  _519
REMARK  219  A    between atoms: _520  and  _522
REMARK  220  A    between atoms: _522  and  _523
REMARK  221  A    between atoms: _526  and  _528
REMARK  222  A    between atoms: _528  and  _529
REMARK  223  A    between atoms: _528  and  _531
REMARK  224  A    between atoms: _531  and  _532
REMARK  225  A    between atoms: _532  and  _533
REMARK  226  A    between atoms: _538  and  _540
REMARK  227  A    between atoms: _540  and  _541
REMARK  228  A    between atoms: _540  and  _543
REMARK  229  A    between atoms: _543  and  _544
REMARK  230  A    between atoms: _544  and  _545
REMARK  231  A    between atoms: _545  and  _546
REMARK  232  A    between atoms: _556  and  _557
REMARK  233  A    between atoms: _562  and  _564
REMARK  234  A    between atoms: _564  and  _565
REMARK  235  A    between atoms: _567  and  _569
REMARK  236  A    between atoms: _569  and  _570
REMARK  237  A    between atoms: _569  and  _572
REMARK  238  A    between atoms: _575  and  _577
REMARK  239  A    between atoms: _577  and  _578
REMARK  240  A    between atoms: _577  and  _580
REMARK  241  A    between atoms: _580  and  _581
REMARK  242  A    between atoms: _586  and  _587
REMARK  243  A    between atoms: _589  and  _591
REMARK  244  A    between atoms: _591  and  _592
REMARK  245  A    between atoms: _591  and  _594
REMARK  246  A    between atoms: _594  and  _595
REMARK                            x       y       z     vdW  Elec       q    Type
REMARK                         _______ _______ _______ _____ _____    ______ ____
ROOT
ATOM      1  CA  THR A   1      38.517   7.712  55.615  0.00  0.00    +0.160 C 
ENDROOT
BRANCH   1   2
ATOM      2  N   THR A   1      37.722   6.964  54.646  0.00  0.00    -0.237 NA
ATOM      3  H   THR A   1      36.854   6.493  54.972  0.00  0.00    +0.142 HD
ENDBRANCH   1   2
BRANCH   1   4
ATOM      4  C   THR A   1      39.079   6.714  56.621  0.00  0.00    +0.227 C 
ATOM      5  O   THR A   1      38.420   5.734  56.949  0.00  0.00    -0.287 OA
ENDBRANCH   1   4
BRANCH   1   6
ATOM      6  CB  THR A   1      37.688   8.785  56.351  0.00  0.00    +0.134 C 
ATOM      7  CG2 THR A   1      36.441   8.201  56.970  0.00  0.00    +0.034 C 
BRANCH   6   8
ATOM      8  OG1 THR A   1      38.487   9.395  57.376  0.00  0.00    -0.383 OA
ATOM      9  HG1 THR A   1      37.951  10.082  57.845  0.00  0.00    +0.210 HD
ENDBRANCH   6   8
ENDBRANCH   1   6
TORSDOF 4
REMARK  Name = ../refined-set-2016/4crb/4crb_pocket.pdb
REMARK  246 active torsions:
REMARK  status: ('A' for Active; 'I' for Inactive)
REMARK    1  A    between atoms: _1  and  _5
REMARK    2  A    between atoms: _5  and  _6
REMARK    3  A    between atoms: _5  and  _8
REMARK    4  A    between atoms: _8  and  _9
REMARK    5  A    between atoms: _12  and  _14
REMARK    6  A    between atoms: _14  and  _15
REMARK    7  A    between atoms: _14  and  _17
REMARK    8  A    between atoms: _20  and  _22
REMARK    9  A    between atoms: _22  and  _23
REMARK   10  A    between atoms: _22  and  _25
REMARK   11  A    between atoms: _25  and  _26
REMARK   12  A    between atoms: _29  and  _31
REMARK   13  A    between atoms: _31  and  _32
REMARK   14  A    between atoms: _31  and  _34
REMARK   15  A    between atoms: _34  and  _35
REMARK   16  A    between atoms: _38  and  _40
REMARK   17  A    between atoms: _40  and  _41
REMARK   18  A    between atoms: _40  and  _43
REMARK   19  A    between atoms: _43  and  _44
REMARK   20  A    between atoms: _47  and  _49
REMARK   21  A    between atoms: _49  and  _50
REMARK   22  A    between atoms: _49  and  _52
REMARK   23  A    between atoms: _52  and  _53
REMARK   24  A    between atoms: _56  and  _58
REMARK   25  A    between atoms: _58  and  _59
REMARK   26  A    between atoms: _58  and  _61
REMARK   27  A    between atoms: _61  and  _62
REMARK   28  A    between atoms: _62  and  _63
REMARK   29  A    between atoms: _68  and  _70
REMARK   30  A    between atoms: _70  and  _71
REMARK   31  A    between atoms: _70  and  _73
REMARK   32  A    between atoms: _73  and  _74
REMARK   33  A    between atoms: _74  and  _75
REMARK   34  A    between atoms: _75  and  _76
REMARK   35  A    between atoms: _85  and  _87
REMARK   36  A    between atoms: _87  and  _88
REMARK   37  A    between atoms: _87  and  _90
REMARK   38  A    between atoms: _90  and  _91
REMARK   39  A    between atoms: _96  and  _98
REMARK   40  A    between atoms: _98  and  _99
REMARK   41  A    between atoms: _98  and  _101
REMARK   42  A    between atoms: _101  and  _102
REMARK   43  A    between atoms: _105  and  _107
REMARK   44  A    between atoms: _107  and  _108
REMARK   45  A    between atoms: _107  and  _110
REMARK   46  A    between atoms: _110  and  _111
REMARK   47  A    between atoms: _111  and  _146
REMARK   48  A    between atoms: _112  and  _114
REMARK   49  A    between atoms: _114  and  _115
REMARK   50  A    between atoms: _117  and  _119
REMARK   51  A    between atoms: _119  and  _120
REMARK   52  A    between atoms: _123  and  _125
REMARK   53  A    between atoms: _125  and  _126
REMARK   54  A    between atoms: _129  and  _131
REMARK   55  A    between atoms: _131  and  _132
REMARK   56  A    between atoms: _131  and  _134
REMARK   57  A    between atoms: _134  and  _135
REMARK   58  A    between atoms: _140  and  _142
REMARK   59  A    between atoms: _142  and  _143
REMARK   60  A    between atoms: _142  and  _145
REMARK   61  A    between atoms: _145  and  _146
REMARK   62  A    between atoms: _147  and  _149
REMARK   63  A    between atoms: _149  and  _150
REMARK   64  A    between atoms: _149  and  _152
REMARK   65  A    between atoms: _152  and  _153
REMARK   66  A    between atoms: _159  and  _161
REMARK   67  A    between atoms: _161  and  _162
REMARK   68  A    between atoms: _161  and  _164
REMARK   69  A    between atoms: _164  and  _165
REMARK   70  A    between atoms: _170  and  _171
REMARK   71  A    between atoms: _173  and  _175
REMARK   72  A    between atoms: _175  and  _176
REMARK   73  A    between atoms: _178  and  _180
REMARK   74  A    between atoms: _180  and  _181
REMARK   75  A    between atoms: _180  and  _183
REMARK   76  A    between atoms: _186  and  _188
REMARK   77  A    between atoms: _188  and  _189
REMARK   78  A    between atoms: _192  and  _194
REMARK   79  A    between atoms: _194  and  _195
REMARK   80  A    between atoms: _194  and  _197
REMARK   81  A    between atoms: _197  and  _198
REMARK   82  A    between atoms: _201  and  _203
REMARK   83  A    between atoms: _203  and  _204
REMARK   84  A    between atoms: _203  and  _206
REMARK   85  A    between atoms: _209  and  _211
REMARK   86  A    between atoms: _211  and  _212
REMARK   87  A    between atoms: _211  and  _214
REMARK   88  A    between atoms: _214  and  _215
REMARK   89  A    between atoms: _225  and  _227
REMARK   90  A    between atoms: _227  and  _228
REMARK   91  A    between atoms: _230  and  _232
REMARK   92  A    between atoms: _232  and  _233
REMARK   93  A    between atoms: _232  and  _235
REMARK   94  A    between atoms: _235  and  _236
REMARK   95  A    between atoms: _241  and  _242
REMARK   96  A    between atoms: _244  and  _246
REMARK   97  A    between atoms: _246  and  _247
REMARK   98  A    between atoms: _246  and  _249
REMARK   99  A    between atoms: _249  and  _250
REMARK  100  A    between atoms: _250  and  _251
REMARK  101  A    between atoms: _251  and  _252
REMARK  102  A    between atoms: _252  and  _253
REMARK  103  A    between atoms: _257  and  _259
REMARK  104  A    between atoms: _259  and  _260
REMARK  105  A    between atoms: _259  and  _262
REMARK  106  A    between atoms: _262  and  _263
REMARK  107  A    between atoms: _266  and  _268
REMARK  108  A    between atoms: _268  and  _269
REMARK  109  A    between atoms: _268  and  _271
REMARK  110  A    between atoms: _271  and  _272
REMARK  111  A    between atoms: _272  and  _273
REMARK  112  A    between atoms: _273  and  _274
REMARK  113  A    between atoms: _283  and  _285
REMARK  114  A    between atoms: _285  and  _286
REMARK  115  A    between atoms: _285  and  _288
REMARK  116  A    between atoms: _288  and  _289
REMARK  117  A    between atoms: _292  and  _294
REMARK  118  A    between atoms: _294  and  _295
REMARK  119  A    between atoms: _294  and  _297
REMARK  120  A    between atoms: _297  and  _298
REMARK  121  A    between atoms: _298  and  _299
REMARK  122  A    between atoms: _299  and  _300
REMARK  123  A    between atoms: _300  and  _301
REMARK  124  A    between atoms: _305  and  _307
REMARK  125  A    between atoms: _307  and  _308
REMARK  126  A    between atoms: _307  and  _310
REMARK  127  A    between atoms: _310  and  _311
REMARK  128  A    between atoms: _314  and  _316
REMARK  129  A    between atoms: _316  and  _317
REMARK  130  A    between atoms: _316  and  _319
REMARK  131  A    between atoms: _319  and  _320
REMARK  132  A    between atoms: _320  and  _321
REMARK  133  A    between atoms: _326  and  _328
REMARK  134  A    between atoms: _328  and  _329
REMARK  135  A    between atoms: _328  and  _331
REMARK  136  A    between atoms: _331  and  _332
REMARK  137  A    between atoms: _335  and  _337
REMARK  138  A    between atoms: _337  and  _338
REMARK  139  A    between atoms: _337  and  _340
REMARK  140  A    between atoms: _340  and  _341
REMARK  141  A    between atoms: _346  and  _347
REMARK  142  A    between atoms: _349  and  _351
REMARK  143  A    between atoms: _351  and  _352
REMARK  144  A    between atoms: _351  and  _354
REMARK  145  A    between atoms: _354  and  _355
REMARK  146  A    between atoms: _358  and  _360
REMARK  147  A    between atoms: _360  and  _361
REMARK  148  A    between atoms: _360  and  _363
REMARK  149  A    between atoms: _365  and  _367
REMARK  150  A    between atoms: _367  and  _368
REMARK  151  A    between atoms: _371  and  _373
REMARK  152  A    between atoms: _373  and  _374
REMARK  153  A    between atoms: _373  and  _376
REMARK  154  A    between atoms: _376  and  _377
REMARK  155  A    between atoms: _377  and  _378
REMARK  156  A    between atoms: _378  and  _379
REMARK  157  A    between atoms: _379  and  _380
REMARK  158  A    between atoms: _384  and  _386
REMARK  159  A    between atoms: _386  and  _387
REMARK  160  A    between atoms: _386  and  _389
REMARK  161  A    between atoms: _389  and  _390
REMARK  162  A    between atoms: _393  and  _395
REMARK  163  A    between atoms: _395  and  _396
REMARK  164  A    between atoms: _399  and  _401
REMARK  165  A    between atoms: _401  and  _402
REMARK  166  A    between atoms: _401  and  _404
REMARK  167  A    between atoms: _404  and  _405
REMARK  168  A    between atoms: _405  and  _519
REMARK  169  A    between atoms: _406  and  _408
REMARK  170  A    between atoms: _408  and  _409
REMARK  171  A    between atoms: _408  and  _411
REMARK  172  A    between atoms: _411  and  _412
REMARK  173  A    between atoms: _412  and  _413
REMARK  174  A    between atoms: _413  and  _414
REMARK  175  A    between atoms: _414  and  _415
REMARK  176  A    between atoms: _419  and  _421
REMARK  177  A    between atoms: _421  and  _422
REMARK  178  A    between atoms: _424  and  _426
REMARK  179  A    between atoms: _426  and  _427
REMARK  180  A    between atoms: _426  and  _429
REMARK  181  A    between atoms: _429  and  _430
REMARK  182  A    between atoms: _433  and  _435
REMARK  183  A    between atoms: _435  and  _436
REMARK  184  A    between atoms: _435  and  _438
REMARK  185  A    between atoms: _438  and  _439
REMARK  186  A    between atoms: _441  and  _443
REMARK  187  A    between atoms: _443  and  _444
REMARK  188  A    between atoms: _446  and  _448
REMARK  189  A    between atoms: _448  and  _449
REMARK  190  A    between atoms: _451  and  _453
REMARK  191  A    between atoms: _453  and  _454
REMARK  192  A    between atoms: _453  and  _456
REMARK  193  A    between atoms: _456  and  _457
REMARK  194  A    between atoms: _460  and  _462
REMARK  195  A    between atoms: _462  and  _463
REMARK  196  A    between atoms: _462  and  _465
REMARK  197  A    between atoms: _465  and  _466
REMARK  198  A    between atoms: _469  and  _471
REMARK  199  A    between atoms: _471  and  _472
REMARK  200  A    between atoms: _471  and  _474
REMARK  201  A    between atoms: _474  and  _475
REMARK  202  A    between atoms: _477  and  _479
REMARK  203  A    between atoms: _479  and  _480
REMARK  204  A    between atoms: _479  and  _482
REMARK  205  A    between atoms: _482  and  _483
REMARK  206  A    between atoms: _493  and  _495
REMARK  207  A    between atoms: _495  and  _496
REMARK  208  A    between atoms: _498  and  _500
REMARK  209  A    between atoms: _500  and  _501
REMARK  210  A    between atoms: _500  and  _503
REMARK  211  A    between atoms: _503  and  _504
REMARK  212  A    between atoms: _504  and  _505
REMARK  213  A    between atoms: _508  and  _510
REMARK  214  A    between atoms: _510  and  _511
REMARK  215  A    between atoms: _513  and  _515
REMARK  216  A    between atoms: _515  and  _516
REMARK  217  A    between atoms: _515  and  _518
REMARK  218  A    between atoms: _518  and  _519
REMARK  219  A    between atoms: _520  and  _522
REMARK  220  A    between atoms: _522  and  _523
REMARK  221  A    between atoms: _526  and  _528
REMARK  222  A    between atoms: _528  and  _529
REMARK  223  A    between atoms: _528  and  _531
REMARK  224  A    between atoms: _531  and  _532
REMARK  225  A    between atoms: _532  and  _533
REMARK  226  A    between atoms: _538  and  _540
REMARK  227  A    between atoms: _540  and  _541
REMARK  228  A    between atoms: _540  and  _543
REMARK  229  A    between atoms: _543  and  _544
REMARK  230  A    between atoms: _544  and  _545
REMARK  231  A    between atoms: _545  and  _546
REMARK  232  A    between atoms: _556  and  _557
REMARK  233  A    between atoms: _562  and  _564
REMARK  234  A    between atoms: _564  and  _565
REMARK  235  A    between atoms: _567  and  _569
REMARK  236  A    between atoms: _569  and  _570
REMARK  237  A    between atoms: _569  and  _572
REMARK  238  A    between atoms: _575  and  _577
REMARK  239  A    between atoms: _577  and  _578
REMARK  240  A    between atoms: _577  and  _580
REMARK  241  A    between atoms: _580  and  _581
REMARK  242  A    between atoms: _586  and  _587
REMARK  243  A    between atoms: _589  and  _591
REMARK  244  A    between atoms: _591  and  _592
REMARK  245  A    between atoms: _591  and  _594
REMARK  246  A    between atoms: _594  and  _595
REMARK                            x       y       z     vdW  Elec       q    Type
REMARK                         _______ _______ _______ _____ _____    ______ ____
ROOT
ATOM      1  SG  TYR A   6      30.822  11.232  50.557  0.00  0.00    -0.080 S 
ENDROOT
BRANCH   1   2
ATOM      2  CB  TYR A   6      31.805  10.059  49.604  0.00  0.00    +0.098 C 
BRANCH   2   3
ATOM      3  CA  TYR A   6      31.485   8.584  49.875  0.00  0.00    +0.160 C 
BRANCH   3   4
ATOM      4  C   TYR A   6      31.786   7.775  48.629  0.00  0.00    +0.242 C 
ATOM      5  O   TYR A   6      32.781   7.072  48.561  0.00  0.00    -0.273 OA
ATOM      6  N   GLY A   7      30.888   7.869  47.658  0.00  0.00    -0.296 N 
ATOM      7  H   GLY A   7      29.960   8.291  47.863  0.00  0.00    +0.150 HD
BRANCH   6   8
ATOM      8  CA  GLY A   7      31.170   7.398  46.321  0.00  0.00    +0.163 C 
BRANCH   8   9
ATOM      9  C   GLY A   7      31.972   8.441  45.561  0.00  0.00    +0.229 C 
ATOM     10  O   GLY A   7      32.166   9.568  46.035  0.00  0.00    -0.286 OA
ENDBRANCH   8   9
ENDBRANCH   6   8
ENDBRANCH   3   4
BRANCH   3  13
ATOM     11  C   PHE A   5      31.868   8.330  52.266  0.00  0.00    +0.241 C 
ATOM     12  O   PHE A   5      30.781   8.843  52.553  0.00  0.00    -0.273 OA
ATOM     13  N   TYR A   6      32.261   8.113  51.010  0.00  0.00    -0.296 N 
ATOM     14  H   TYR A   6      33.145   7.593  50.838  0.00  0.00    +0.150 HD
BRANCH  11  15
ATOM     15  CA  PHE A   5      32.840   7.900  53.355  0.00  0.00    +0.149 C 
BRANCH  15  18
ATOM     16  C   CYS A   4      32.908   5.531  53.981  0.00  0.00    +0.241 C 
ATOM     17  O   CYS A   4      32.116   5.684  54.924  0.00  0.00    -0.273 OA
ATOM     18  N   PHE A   5      33.302   6.521  53.182  0.00  0.00    -0.297 N 
ATOM     19  H   PHE A   5      33.962   6.307  52.407  0.00  0.00    +0.150 HD
BRANCH  16  20
ATOM     20  CA  CYS A   4      33.486   4.156  53.676  0.00  0.00    +0.155 C 
BRANCH  20  23
ATOM     21  C   HIS A   3      34.974   4.004  55.611  0.00  0.00    +0.241 C 
ATOM     22  O   HIS A   3      35.650   4.964  55.254  0.00  0.00    -0.273 OA
ATOM     23  N   CYS A   4      33.964   3.516  54.898  0.00  0.00    -0.297 N 
ATOM     24  H   CYS A   4      33.497   2.646  55.223  0.00  0.00    +0.150 HD
BRANCH  21  25
ATOM     25  CA  HIS A   3      35.237   3.301  56.939  0.00  0.00    +0.149 C 
BRANCH  25  28
ATOM     26  C   ALA A   2      37.215   2.632  58.198  0.00  0.00    +0.241 C 
ATOM     27  O   ALA A   2      36.654   1.648  58.684  0.00  0.00    -0.273 OA
ATOM     28  N   HIS A   3      36.624   3.453  57.334  0.00  0.00    -0.297 N 
ATOM     29  H   HIS A   3      37.178   4.233  56.926  0.00  0.00    +0.150 HD
BRANCH  26  30
ATOM     30  CA  ALA A   2      38.650   2.988  58.559  0.00  0.00    +0.149 C 
BRANCH  30  33
ATOM     31  C   ALA A   1      38.401   3.817  60.820  0.00  0.00    +0.241 C 
ATOM     32  O   ALA A   1      37.448   4.566  60.507  0.00  0.00    -0.274 OA
ATOM     33  N   ALA A   2      38.930   2.929  59.992  0.00  0.00    -0.297 N 
ATOM     34  H   ALA A   2      39.551   2.183  60.365  0.00  0.00    +0.150 HD
BRANCH  31  35
ATOM     35  CA  ALA A   1      39.015   3.857  62.213  0.00  0.00    +0.172 C 
BRANCH  35  36
ATOM     36  N   ALA A   1      38.645   5.121  62.837  0.00  0.00    -0.236 NA
ATOM     37  H   ALA A   1      37.642   5.393  62.863  0.00  0.00    +0.142 HD
ENDBRANCH  35  36
BRANCH  35  38
ATOM     38  CB  ALA A   1      38.510   2.629  62.995  0.00  0.00    +0.135 C 
ATOM     39  CG2 ALA A   1      39.174   2.565  64.371  0.00  0.00    +0.034 C 
BRANCH  38  40
ATOM     40  OG1 ALA A   1      37.084   2.697  63.142  0.00  0.00    -0.383 OA
ATOM     41  HG1 ALA A   1      36.767   1.905  63.645  0.00  0.00    +0.210 HD
ENDBRANCH  38  40
ENDBRANCH  35  38
ENDBRANCH  31  35
ENDBRANCH  30  33
BRANCH  30  42
ATOM     42  CB  ALA A   2      39.638   2.133  57.765  0.00  0.00    +0.039 C 
BRANCH  42  43
ATOM     43  CG  ALA A   2      39.508   2.361  56.264  0.00  0.00    +0.087 C 
BRANCH  43  44
ATOM     44  CD  ALA A   2      40.561   1.619  55.460  0.00  0.00    +0.219 C 
ATOM     45  OE1 ALA A   2      41.724   1.560  55.838  0.00  0.00    -0.275 OA
ATOM     46  NE2 ALA A   2      40.156   1.062  54.328  0.00  0.00    -0.329 N 
ATOM     47 HE21 ALA A   2      39.159   1.134  54.041  0.00  0.00    +0.145 HD
ATOM     48 HE22 ALA A   2      40.835   0.553  53.727  0.00  0.00    +0.145 HD
ENDBRANCH  43  44
ENDBRANCH  42  43
ENDBRANCH  30  42
ENDBRANCH  26  30
ENDBRANCH  25  28
BRANCH  25  49
ATOM     49  CB  HIS A   3      34.308   3.893  58.012  0.00  0.00    +0.033 C 
BRANCH  49  50
ATOM     50  CG  HIS A   3      34.591   5.352  58.369  0.00  0.00    +0.045 C 
BRANCH  50  51
ATOM     51  CD  HIS A   3      34.029   5.742  59.736  0.00  0.00    +0.174 C 
BRANCH  51  52
ATOM     52  NE  HIS A   3      34.764   5.130  60.851  0.00  0.00    -0.265 N 
ATOM     53  CZ  HIS A   3      34.448   5.260  62.142  0.00  0.00    +0.342 C 
ATOM     54  NH2 HIS A   3      35.187   4.658  63.066  0.00  0.00    -0.292 N 
ATOM     55 HH21 HIS A   3      34.944   4.757  64.072  0.00  0.00    +0.255 HD
ATOM     56 HH22 HIS A   3      36.009   4.087  62.784  0.00  0.00    +0.255 HD
ATOM     57  NH1 HIS A   3      33.399   5.990  62.517  0.00  0.00    -0.292 N 
ATOM     58 HH11 HIS A   3      33.164   6.083  63.526  0.00  0.00    +0.255 HD
ATOM     59 HH12 HIS A   3      32.815   6.467  61.801  0.00  0.00    +0.255 HD
ATOM     60  HE  HIS A   3      35.595   4.550  60.617  0.00  0.00    +0.259 HD
ENDBRANCH  51  52
ENDBRANCH  50  51
ENDBRANCH  49  50
ENDBRANCH  25  49
ENDBRANCH  21  25
ENDBRANCH  20  23
BRANCH  20  61
ATOM     61  CB  CYS A   4      32.424   3.275  53.014  0.00  0.00    +0.076 C 
BRANCH  61  62
ATOM     62  CG  CYS A   4      31.623   3.962  51.951  0.00  0.00    +0.082 A 
ATOM     63  CD2 CYS A   4      30.433   4.607  52.005  0.00  0.00    +0.115 A 
ATOM     64  NE2 CYS A   4      30.144   5.035  50.733  0.00  0.00    -0.221 NA
ATOM     65  CE1 CYS A   4      31.112   4.642  49.919  0.00  0.00    +0.199 A 
ATOM     66  ND1 CYS A   4      32.014   3.988  50.628  0.00  0.00    -0.227 NA
ENDBRANCH  61  62
ENDBRANCH  20  61
ENDBRANCH  16  20
ENDBRANCH  15  18
BRANCH  15  67
ATOM     67  CB  PHE A   5      34.043   8.833  53.376  0.00  0.00    +0.029 C 
BRANCH  67  68
ATOM     68  CG  PHE A   5      33.815  10.340  53.544  0.00  0.00    +0.002 C 
ATOM     69  CD2 PHE A   5      33.035  10.664  54.805  0.00  0.00    +0.000 C 
ATOM     70  CD1 PHE A   5      35.149  11.064  53.565  0.00  0.00    +0.000 C 
ENDBRANCH  67  68
ENDBRANCH  15  67
ENDBRANCH  11  15
ENDBRANCH   3  13
ENDBRANCH   2   3
ENDBRANCH   1   2
BRANCH   1  71
ATOM     71  SG  CYS A   4      31.054  12.958  49.538  0.00  0.00    -0.080 S 
BRANCH  71  72
ATOM     72  CB  CYS A   4      32.388  13.758  50.421  0.00  0.00    +0.098 C 
BRANCH  72  73
ATOM     73  CA  CYS A   4      31.887  14.676  51.534  0.00  0.00    +0.160 C 
BRANCH  73  74
ATOM     74  N   CYS A   4      31.225  15.853  50.976  0.00  0.00    -0.296 N 
ATOM     75  C   HIS A   3      30.627  16.743  51.762  0.00  0.00    +0.241 C 
ATOM     76  O   HIS A   3      30.572  16.612  52.981  0.00  0.00    -0.273 OA
ATOM     77  H   CYS A   4      31.222  15.997  49.946  0.00  0.00    +0.150 HD
BRANCH  75  78
ATOM     78  CA  HIS A   3      29.984  17.943  51.087  0.00  0.00    +0.155 C 
BRANCH  78  79
ATOM     79  N   HIS A   3      30.434  18.117  49.699  0.00  0.00    -0.297 N 
ATOM     80  C   ALA A   2      31.697  18.456  49.460  0.00  0.00    +0.241 C 
ATOM     81  O   ALA A   2      32.543  18.558  50.357  0.00  0.00    -0.273 OA
ATOM     82  H   HIS A   3      29.770  17.976  48.911  0.00  0.00    +0.150 HD
BRANCH  80  83
ATOM     83  CA  ALA A   2      32.080  18.751  48.018  0.00  0.00    +0.149 C 
ATOM     84  CB  ALA A   2      31.789  20.214  47.706  0.00  0.00    +0.031 C 
BRANCH  83  85
ATOM     85  N   ALA A   2      31.382  17.882  47.076  0.00  0.00    -0.297 N 
ATOM     86  C   ALA A   1      31.506  16.561  47.104  0.00  0.00    +0.238 C 
ATOM     87  O   ALA A   1      32.268  15.975  47.865  0.00  0.00    -0.274 OA
ATOM     88  H   ALA A   2      30.766  18.313  46.358  0.00  0.00    +0.150 HD
BRANCH  86  89
ATOM     89  CA  ALA A   1      30.680  15.796  46.075  0.00  0.00    +0.145 C 
ATOM     90  CB  ALA A   1      29.349  15.325  46.692  0.00  0.00    +0.028 C 
BRANCH  89  91
ATOM     91  N   ALA A   1      31.446  14.668  45.506  0.00  0.00    -0.238 NA
ATOM     92  H   ALA A   1      31.478  13.764  46.020  0.00  0.00    +0.142 HD
ENDBRANCH  89  91
ENDBRANCH  86  89
ENDBRANCH  83  85
ENDBRANCH  80  83
ENDBRANCH  78  79
BRANCH  78  93
ATOM     93  CB  HIS A   3      28.466  17.831  51.170  0.00  0.00    +0.076 C 
BRANCH  93  94
ATOM     94  CG  HIS A   3      27.941  16.519  50.687  0.00  0.00    +0.082 A 
ATOM     95  CD2 HIS A   3      28.012  15.275  51.223  0.00  0.00    +0.115 A 
ATOM     96  NE2 HIS A   3      27.378  14.422  50.352  0.00  0.00    -0.221 NA
ATOM     97  CE1 HIS A   3      26.931  15.119  49.321  0.00  0.00    +0.199 A 
ATOM     98  ND1 HIS A   3      27.278  16.383  49.488  0.00  0.00    -0.227 NA
ENDBRANCH  93  94
ENDBRANCH  78  93
ENDBRANCH  75  78
ENDBRANCH  73  74
BRANCH  73  99
ATOM     99  C   CYS A   4      33.050  15.019  52.458  0.00  0.00    +0.242 C 
ATOM    100  O   CYS A   4      33.467  14.181  53.257  0.00  0.00    -0.273 OA
ATOM    101  N   PHE A   5      33.570  16.240  52.357  0.00  0.00    -0.297 N 
ATOM    102  H   PHE A   5      33.110  16.939  51.740  0.00  0.00    +0.150 HD
BRANCH 101 103
ATOM    103  CA  PHE A   5      34.772  16.619  53.093  0.00  0.00    +0.153 C 
BRANCH 103 104
ATOM    104  C   PHE A   5      34.518  17.515  54.278  0.00  0.00    +0.241 C 
ATOM    105  O   PHE A   5      35.432  18.156  54.792  0.00  0.00    -0.273 OA
ATOM    106  N   TYR A   6      33.277  17.537  54.736  0.00  0.00    -0.297 N 
ATOM    107  H   TYR A   6      32.528  17.024  54.228  0.00  0.00    +0.150 HD
BRANCH 106 108
ATOM    108  CA  TYR A   6      32.958  18.272  55.941  0.00  0.00    +0.153 C 
BRANCH 108 109
ATOM    109  C   TYR A   6      33.861  17.782  57.071  0.00  0.00    +0.241 C 
ATOM    110  N   GLY A   7      34.558  18.694  57.738  0.00  0.00    -0.295 N 
ATOM    111  H   GLY A   7      34.473  19.696  57.471  0.00  0.00    +0.150 HD
ATOM    112  O   TYR A   6      33.952  16.586  57.309  0.00  0.00    -0.273 OA
BRANCH 110 113
ATOM    113  CA  GLY A   7      35.444  18.318  58.842  0.00  0.00    +0.176 C 
BRANCH 113 114
ATOM    114  C   GLY A   7      36.729  17.591  58.465  0.00  0.00    +0.243 C 
ATOM    115  O   GLY A   7      37.528  17.264  59.348  0.00  0.00    -0.273 OA
ATOM    116  N   VAL A   8      36.936  17.311  57.172  0.00  0.00    -0.298 N 
ATOM    117  H   VAL A   8      36.216  17.583  56.472  0.00  0.00    +0.150 HD
BRANCH 116 118
ATOM    118  CA  VAL A   8      38.155  16.629  56.719  0.00  0.00    +0.137 C 
BRANCH 118 119
ATOM    119  CB  VAL A   8      37.961  15.918  55.353  0.00  0.00    +0.026 C 
ATOM    120  CG2 VAL A   8      36.958  14.782  55.486  0.00  0.00    +0.002 C 
ATOM    121  CG1 VAL A   8      39.275  15.371  54.804  0.00  0.00    +0.002 C 
ENDBRANCH 118 119
BRANCH 118 122
ATOM    122  C   VAL A   8      39.250  17.682  56.648  0.00  0.00    +0.227 C 
ATOM    123  O   VAL A   8      39.172  18.608  55.849  0.00  0.00    -0.286 OA
ENDBRANCH 118 122
ENDBRANCH 116 118
ENDBRANCH 113 114
ENDBRANCH 110 113
ENDBRANCH 108 109
BRANCH 108 124
ATOM    124  CB  TYR A   6      31.495  18.069  56.328  0.00  0.00    +0.055 C 
BRANCH 124 125
ATOM    125  CG  TYR A   6      31.200  18.689  57.654  0.00  0.00    -0.020 A 
ATOM    126  CD2 TYR A   6      31.185  17.929  58.820  0.00  0.00    -0.001 A 
ATOM    127  CE2 TYR A   6      30.950  18.526  60.046  0.00  0.00    +0.036 A 
ATOM    128  CZ  TYR A   6      30.740  19.894  60.099  0.00  0.00    +0.134 A 
ATOM    129  CE1 TYR A   6      30.767  20.660  58.968  0.00  0.00    +0.036 A 
ATOM    130  CD1 TYR A   6      31.003  20.064  57.753  0.00  0.00    -0.001 A 
BRANCH 128 131
ATOM    131  OH  TYR A   6      30.504  20.529  61.286  0.00  0.00    -0.506 OA
ATOM    132  HH  TYR A   6      30.379  21.497  61.122  0.00  0.00    +0.292 HD
ENDBRANCH 128 131
ENDBRANCH 124 125
ENDBRANCH 108 124
ENDBRANCH 106 108
ENDBRANCH 103 104
BRANCH 103 133
ATOM    133  CB  PHE A   5      35.772  17.200  52.102  0.00  0.00    +0.055 C 
BRANCH 133 134
ATOM    134  CG  PHE A   5      35.996  16.271  50.961  0.00  0.00    -0.020 A 
ATOM    135  CD2 PHE A   5      36.791  15.148  51.135  0.00  0.00    -0.004 A 
ATOM    136  CE2 PHE A   5      36.945  14.229  50.120  0.00  0.00    -0.000 A 
ATOM    137  CZ  PHE A   5      36.267  14.416  48.921  0.00  0.00    -0.000 A 
ATOM    138  CE1 PHE A   5      35.452  15.514  48.748  0.00  0.00    -0.000 A 
ATOM    139  CD1 PHE A   5      35.306  16.433  49.770  0.00  0.00    -0.004 A 
ENDBRANCH 133 134
ENDBRANCH 103 133
ENDBRANCH 101 103
ENDBRANCH  73  99
ENDBRANCH  72  73
ENDBRANCH  71  72
ENDBRANCH   1  71
TORSDOF 56
REMARK  Name = ../refined-set-2016/4crb/4crb_pocket.pdb
REMARK  246 active torsions:
REMARK  status: ('A' for Active; 'I' for Inactive)
REMARK    1  A    between atoms: _1  and  _5
REMARK    2  A    between atoms: _5  and  _6
REMARK    3  A    between atoms: _5  and  _8
REMARK    4  A    between atoms: _8  and  _9
REMARK    5  A    between atoms: _12  and  _14
REMARK    6  A    between atoms: _14  and  _15
REMARK    7  A    between atoms: _14  and  _17
REMARK    8  A    between atoms: _20  and  _22
REMARK    9  A    between atoms: _22  and  _23
REMARK   10  A    between atoms: _22  and  _25
REMARK   11  A    between atoms: _25  and  _26
REMARK   12  A    between atoms: _29  and  _31
REMARK   13  A    between atoms: _31  and  _32
REMARK   14  A    between atoms: _31  and  _34
REMARK   15  A    between atoms: _34  and  _35
REMARK   16  A    between atoms: _38  and  _40
REMARK   17  A    between atoms: _40  and  _41
REMARK   18  A    between atoms: _40  and  _43
REMARK   19  A    between atoms: _43  and  _44
REMARK   20  A    between atoms: _47  and  _49
REMARK   21  A    between atoms: _49  and  _50
REMARK   22  A    between atoms: _49  and  _52
REMARK   23  A    between atoms: _52  and  _53
REMARK   24  A    between atoms: _56  and  _58
REMARK   25  A    between atoms: _58  and  _59
REMARK   26  A    between atoms: _58  and  _61
REMARK   27  A    between atoms: _61  and  _62
REMARK   28  A    between atoms: _62  and  _63
REMARK   29  A    between atoms: _68  and  _70
REMARK   30  A    between atoms: _70  and  _71
REMARK   31  A    between atoms: _70  and  _73
REMARK   32  A    between atoms: _73  and  _74
REMARK   33  A    between atoms: _74  and  _75
REMARK   34  A    between atoms: _75  and  _76
REMARK   35  A    between atoms: _85  and  _87
REMARK   36  A    between atoms: _87  and  _88
REMARK   37  A    between atoms: _87  and  _90
REMARK   38  A    between atoms: _90  and  _91
REMARK   39  A    between atoms: _96  and  _98
REMARK   40  A    between atoms: _98  and  _99
REMARK   41  A    between atoms: _98  and  _101
REMARK   42  A    between atoms: _101  and  _102
REMARK   43  A    between atoms: _105  and  _107
REMARK   44  A    between atoms: _107  and  _108
REMARK   45  A    between atoms: _107  and  _110
REMARK   46  A    between atoms: _110  and  _111
REMARK   47  A    between atoms: _111  and  _146
REMARK   48  A    between atoms: _112  and  _114
REMARK   49  A    between atoms: _114  and  _115
REMARK   50  A    between atoms: _117  and  _119
REMARK   51  A    between atoms: _119  and  _120
REMARK   52  A    between atoms: _123  and  _125
REMARK   53  A    between atoms: _125  and  _126
REMARK   54  A    between atoms: _129  and  _131
REMARK   55  A    between atoms: _131  and  _132
REMARK   56  A    between atoms: _131  and  _134
REMARK   57  A    between atoms: _134  and  _135
REMARK   58  A    between atoms: _140  and  _142
REMARK   59  A    between atoms: _142  and  _143
REMARK   60  A    between atoms: _142  and  _145
REMARK   61  A    between atoms: _145  and  _146
REMARK   62  A    between atoms: _147  and  _149
REMARK   63  A    between atoms: _149  and  _150
REMARK   64  A    between atoms: _149  and  _152
REMARK   65  A    between atoms: _152  and  _153
REMARK   66  A    between atoms: _159  and  _161
REMARK   67  A    between atoms: _161  and  _162
REMARK   68  A    between atoms: _161  and  _164
REMARK   69  A    between atoms: _164  and  _165
REMARK   70  A    between atoms: _170  and  _171
REMARK   71  A    between atoms: _173  and  _175
REMARK   72  A    between atoms: _175  and  _176
REMARK   73  A    between atoms: _178  and  _180
REMARK   74  A    between atoms: _180  and  _181
REMARK   75  A    between atoms: _180  and  _183
REMARK   76  A    between atoms: _186  and  _188
REMARK   77  A    between atoms: _188  and  _189
REMARK   78  A    between atoms: _192  and  _194
REMARK   79  A    between atoms: _194  and  _195
REMARK   80  A    between atoms: _194  and  _197
REMARK   81  A    between atoms: _197  and  _198
REMARK   82  A    between atoms: _201  and  _203
REMARK   83  A    between atoms: _203  and  _204
REMARK   84  A    between atoms: _203  and  _206
REMARK   85  A    between atoms: _209  and  _211
REMARK   86  A    between atoms: _211  and  _212
REMARK   87  A    between atoms: _211  and  _214
REMARK   88  A    between atoms: _214  and  _215
REMARK   89  A    between atoms: _225  and  _227
REMARK   90  A    between atoms: _227  and  _228
REMARK   91  A    between atoms: _230  and  _232
REMARK   92  A    between atoms: _232  and  _233
REMARK   93  A    between atoms: _232  and  _235
REMARK   94  A    between atoms: _235  and  _236
REMARK   95  A    between atoms: _241  and  _242
REMARK   96  A    between atoms: _244  and  _246
REMARK   97  A    between atoms: _246  and  _247
REMARK   98  A    between atoms: _246  and  _249
REMARK   99  A    between atoms: _249  and  _250
REMARK  100  A    between atoms: _250  and  _251
REMARK  101  A    between atoms: _251  and  _252
REMARK  102  A    between atoms: _252  and  _253
REMARK  103  A    between atoms: _257  and  _259
REMARK  104  A    between atoms: _259  and  _260
REMARK  105  A    between atoms: _259  and  _262
REMARK  106  A    between atoms: _262  and  _263
REMARK  107  A    between atoms: _266  and  _268
REMARK  108  A    between atoms: _268  and  _269
REMARK  109  A    between atoms: _268  and  _271
REMARK  110  A    between atoms: _271  and  _272
REMARK  111  A    between atoms: _272  and  _273
REMARK  112  A    between atoms: _273  and  _274
REMARK  113  A    between atoms: _283  and  _285
REMARK  114  A    between atoms: _285  and  _286
REMARK  115  A    between atoms: _285  and  _288
REMARK  116  A    between atoms: _288  and  _289
REMARK  117  A    between atoms: _292  and  _294
REMARK  118  A    between atoms: _294  and  _295
REMARK  119  A    between atoms: _294  and  _297
REMARK  120  A    between atoms: _297  and  _298
REMARK  121  A    between atoms: _298  and  _299
REMARK  122  A    between atoms: _299  and  _300
REMARK  123  A    between atoms: _300  and  _301
REMARK  124  A    between atoms: _305  and  _307
REMARK  125  A    between atoms: _307  and  _308
REMARK  126  A    between atoms: _307  and  _310
REMARK  127  A    between atoms: _310  and  _311
REMARK  128  A    between atoms: _314  and  _316
REMARK  129  A    between atoms: _316  and  _317
REMARK  130  A    between atoms: _316  and  _319
REMARK  131  A    between atoms: _319  and  _320
REMARK  132  A    between atoms: _320  and  _321
REMARK  133  A    between atoms: _326  and  _328
REMARK  134  A    between atoms: _328  and  _329
REMARK  135  A    between atoms: _328  and  _331
REMARK  136  A    between atoms: _331  and  _332
REMARK  137  A    between atoms: _335  and  _337
REMARK  138  A    between atoms: _337  and  _338
REMARK  139  A    between atoms: _337  and  _340
REMARK  140  A    between atoms: _340  and  _341
REMARK  141  A    between atoms: _346  and  _347
REMARK  142  A    between atoms: _349  and  _351
REMARK  143  A    between atoms: _351  and  _352
REMARK  144  A    between atoms: _351  and  _354
REMARK  145  A    between atoms: _354  and  _355
REMARK  146  A    between atoms: _358  and  _360
REMARK  147  A    between atoms: _360  and  _361
REMARK  148  A    between atoms: _360  and  _363
REMARK  149  A    between atoms: _365  and  _367
REMARK  150  A    between atoms: _367  and  _368
REMARK  151  A    between atoms: _371  and  _373
REMARK  152  A    between atoms: _373  and  _374
REMARK  153  A    between atoms: _373  and  _376
REMARK  154  A    between atoms: _376  and  _377
REMARK  155  A    between atoms: _377  and  _378
REMARK  156  A    between atoms: _378  and  _379
REMARK  157  A    between atoms: _379  and  _380
REMARK  158  A    between atoms: _384  and  _386
REMARK  159  A    between atoms: _386  and  _387
REMARK  160  A    between atoms: _386  and  _389
REMARK  161  A    between atoms: _389  and  _390
REMARK  162  A    between atoms: _393  and  _395
REMARK  163  A    between atoms: _395  and  _396
REMARK  164  A    between atoms: _399  and  _401
REMARK  165  A    between atoms: _401  and  _402
REMARK  166  A    between atoms: _401  and  _404
REMARK  167  A    between atoms: _404  and  _405
REMARK  168  A    between atoms: _405  and  _519
REMARK  169  A    between atoms: _406  and  _408
REMARK  170  A    between atoms: _408  and  _409
REMARK  171  A    between atoms: _408  and  _411
REMARK  172  A    between atoms: _411  and  _412
REMARK  173  A    between atoms: _412  and  _413
REMARK  174  A    between atoms: _413  and  _414
REMARK  175  A    between atoms: _414  and  _415
REMARK  176  A    between atoms: _419  and  _421
REMARK  177  A    between atoms: _421  and  _422
REMARK  178  A    between atoms: _424  and  _426
REMARK  179  A    between atoms: _426  and  _427
REMARK  180  A    between atoms: _426  and  _429
REMARK  181  A    between atoms: _429  and  _430
REMARK  182  A    between atoms: _433  and  _435
REMARK  183  A    between atoms: _435  and  _436
REMARK  184  A    between atoms: _435  and  _438
REMARK  185  A    between atoms: _438  and  _439
REMARK  186  A    between atoms: _441  and  _443
REMARK  187  A    between atoms: _443  and  _444
REMARK  188  A    between atoms: _446  and  _448
REMARK  189  A    between atoms: _448  and  _449
REMARK  190  A    between atoms: _451  and  _453
REMARK  191  A    between atoms: _453  and  _454
REMARK  192  A    between atoms: _453  and  _456
REMARK  193  A    between atoms: _456  and  _457
REMARK  194  A    between atoms: _460  and  _462
REMARK  195  A    between atoms: _462  and  _463
REMARK  196  A    between atoms: _462  and  _465
REMARK  197  A    between atoms: _465  and  _466
REMARK  198  A    between atoms: _469  and  _471
REMARK  199  A    between atoms: _471  and  _472
REMARK  200  A    between atoms: _471  and  _474
REMARK  201  A    between atoms: _474  and  _475
REMARK  202  A    between atoms: _477  and  _479
REMARK  203  A    between atoms: _479  and  _480
REMARK  204  A    between atoms: _479  and  _482
REMARK  205  A    between atoms: _482  and  _483
REMARK  206  A    between atoms: _493  and  _495
REMARK  207  A    between atoms: _495  and  _496
REMARK  208  A    between atoms: _498  and  _500
REMARK  209  A    between atoms: _500  and  _501
REMARK  210  A    between atoms: _500  and  _503
REMARK  211  A    between atoms: _503  and  _504
REMARK  212  A    between atoms: _504  and  _505
REMARK  213  A    between atoms: _508  and  _510
REMARK  214  A    between atoms: _510  and  _511
REMARK  215  A    between atoms: _513  and  _515
REMARK  216  A    between atoms: _515  and  _516
REMARK  217  A    between atoms: _515  and  _518
REMARK  218  A    between atoms: _518  and  _519
REMARK  219  A    between atoms: _520  and  _522
REMARK  220  A    between atoms: _522  and  _523
REMARK  221  A    between atoms: _526  and  _528
REMARK  222  A    between atoms: _528  and  _529
REMARK  223  A    between atoms: _528  and  _531
REMARK  224  A    between atoms: _531  and  _532
REMARK  225  A    between atoms: _532  and  _533
REMARK  226  A    between atoms: _538  and  _540
REMARK  227  A    between atoms: _540  and  _541
REMARK  228  A    between atoms: _540  and  _543
REMARK  229  A    between atoms: _543  and  _544
REMARK  230  A    between atoms: _544  and  _545
REMARK  231  A    between atoms: _545  and  _546
REMARK  232  A    between atoms: _556  and  _557
REMARK  233  A    between atoms: _562  and  _564
REMARK  234  A    between atoms: _564  and  _565
REMARK  235  A    between atoms: _567  and  _569
REMARK  236  A    between atoms: _569  and  _570
REMARK  237  A    between atoms: _569  and  _572
REMARK  238  A    between atoms: _575  and  _577
REMARK  239  A    between atoms: _577  and  _578
REMARK  240  A    between atoms: _577  and  _580
REMARK  241  A    between atoms: _580  and  _581
REMARK  242  A    between atoms: _586  and  _587
REMARK  243  A    between atoms: _589  and  _591
REMARK  244  A    between atoms: _591  and  _592
REMARK  245  A    between atoms: _591  and  _594
REMARK  246  A    between atoms: _594  and  _595
REMARK                            x       y       z     vdW  Elec       q    Type
REMARK                         _______ _______ _______ _____ _____    ______ ____
ROOT
ATOM      1  CA  ALA A   1      24.821  20.617  49.107  0.00  0.00    +0.133 C 
ATOM      2  CB  ALA A   1      24.547  19.204  49.577  0.00  0.00    +0.027 C 
ENDROOT
BRANCH   1   3
ATOM      3  N   ALA A   1      25.392  21.404  50.199  0.00  0.00    -0.239 NA
ATOM      4  H   ALA A   1      25.597  20.931  51.102  0.00  0.00    +0.142 HD
ENDBRANCH   1   3
BRANCH   1   5
ATOM      5  C   ALA A   1      23.550  21.234  48.523  0.00  0.00    +0.224 C 
ATOM      6  O   ALA A   1      23.448  21.429  47.321  0.00  0.00    -0.287 OA
ENDBRANCH   1   5
TORSDOF 2
REMARK  Name = ../refined-set-2016/4crb/4crb_pocket.pdb
REMARK  246 active torsions:
REMARK  status: ('A' for Active; 'I' for Inactive)
REMARK    1  A    between atoms: _1  and  _5
REMARK    2  A    between atoms: _5  and  _6
REMARK    3  A    between atoms: _5  and  _8
REMARK    4  A    between atoms: _8  and  _9
REMARK    5  A    between atoms: _12  and  _14
REMARK    6  A    between atoms: _14  and  _15
REMARK    7  A    between atoms: _14  and  _17
REMARK    8  A    between atoms: _20  and  _22
REMARK    9  A    between atoms: _22  and  _23
REMARK   10  A    between atoms: _22  and  _25
REMARK   11  A    between atoms: _25  and  _26
REMARK   12  A    between atoms: _29  and  _31
REMARK   13  A    between atoms: _31  and  _32
REMARK   14  A    between atoms: _31  and  _34
REMARK   15  A    between atoms: _34  and  _35
REMARK   16  A    between atoms: _38  and  _40
REMARK   17  A    between atoms: _40  and  _41
REMARK   18  A    between atoms: _40  and  _43
REMARK   19  A    between atoms: _43  and  _44
REMARK   20  A    between atoms: _47  and  _49
REMARK   21  A    between atoms: _49  and  _50
REMARK   22  A    between atoms: _49  and  _52
REMARK   23  A    between atoms: _52  and  _53
REMARK   24  A    between atoms: _56  and  _58
REMARK   25  A    between atoms: _58  and  _59
REMARK   26  A    between atoms: _58  and  _61
REMARK   27  A    between atoms: _61  and  _62
REMARK   28  A    between atoms: _62  and  _63
REMARK   29  A    between atoms: _68  and  _70
REMARK   30  A    between atoms: _70  and  _71
REMARK   31  A    between atoms: _70  and  _73
REMARK   32  A    between atoms: _73  and  _74
REMARK   33  A    between atoms: _74  and  _75
REMARK   34  A    between atoms: _75  and  _76
REMARK   35  A    between atoms: _85  and  _87
REMARK   36  A    between atoms: _87  and  _88
REMARK   37  A    between atoms: _87  and  _90
REMARK   38  A    between atoms: _90  and  _91
REMARK   39  A    between atoms: _96  and  _98
REMARK   40  A    between atoms: _98  and  _99
REMARK   41  A    between atoms: _98  and  _101
REMARK   42  A    between atoms: _101  and  _102
REMARK   43  A    between atoms: _105  and  _107
REMARK   44  A    between atoms: _107  and  _108
REMARK   45  A    between atoms: _107  and  _110
REMARK   46  A    between atoms: _110  and  _111
REMARK   47  A    between atoms: _111  and  _146
REMARK   48  A    between atoms: _112  and  _114
REMARK   49  A    between atoms: _114  and  _115
REMARK   50  A    between atoms: _117  and  _119
REMARK   51  A    between atoms: _119  and  _120
REMARK   52  A    between atoms: _123  and  _125
REMARK   53  A    between atoms: _125  and  _126
REMARK   54  A    between atoms: _129  and  _131
REMARK   55  A    between atoms: _131  and  _132
REMARK   56  A    between atoms: _131  and  _134
REMARK   57  A    between atoms: _134  and  _135
REMARK   58  A    between atoms: _140  and  _142
REMARK   59  A    between atoms: _142  and  _143
REMARK   60  A    between atoms: _142  and  _145
REMARK   61  A    between atoms: _145  and  _146
REMARK   62  A    between atoms: _147  and  _149
REMARK   63  A    between atoms: _149  and  _150
REMARK   64  A    between atoms: _149  and  _152
REMARK   65  A    between atoms: _152  and  _153
REMARK   66  A    between atoms: _159  and  _161
REMARK   67  A    between atoms: _161  and  _162
REMARK   68  A    between atoms: _161  and  _164
REMARK   69  A    between atoms: _164  and  _165
REMARK   70  A    between atoms: _170  and  _171
REMARK   71  A    between atoms: _173  and  _175
REMARK   72  A    between atoms: _175  and  _176
REMARK   73  A    between atoms: _178  and  _180
REMARK   74  A    between atoms: _180  and  _181
REMARK   75  A    between atoms: _180  and  _183
REMARK   76  A    between atoms: _186  and  _188
REMARK   77  A    between atoms: _188  and  _189
REMARK   78  A    between atoms: _192  and  _194
REMARK   79  A    between atoms: _194  and  _195
REMARK   80  A    between atoms: _194  and  _197
REMARK   81  A    between atoms: _197  and  _198
REMARK   82  A    between atoms: _201  and  _203
REMARK   83  A    between atoms: _203  and  _204
REMARK   84  A    between atoms: _203  and  _206
REMARK   85  A    between atoms: _209  and  _211
REMARK   86  A    between atoms: _211  and  _212
REMARK   87  A    between atoms: _211  and  _214
REMARK   88  A    between atoms: _214  and  _215
REMARK   89  A    between atoms: _225  and  _227
REMARK   90  A    between atoms: _227  and  _228
REMARK   91  A    between atoms: _230  and  _232
REMARK   92  A    between atoms: _232  and  _233
REMARK   93  A    between atoms: _232  and  _235
REMARK   94  A    between atoms: _235  and  _236
REMARK   95  A    between atoms: _241  and  _242
REMARK   96  A    between atoms: _244  and  _246
REMARK   97  A    between atoms: _246  and  _247
REMARK   98  A    between atoms: _246  and  _249
REMARK   99  A    between atoms: _249  and  _250
REMARK  100  A    between atoms: _250  and  _251
REMARK  101  A    between atoms: _251  and  _252
REMARK  102  A    between atoms: _252  and  _253
REMARK  103  A    between atoms: _257  and  _259
REMARK  104  A    between atoms: _259  and  _260
REMARK  105  A    between atoms: _259  and  _262
REMARK  106  A    between atoms: _262  and  _263
REMARK  107  A    between atoms: _266  and  _268
REMARK  108  A    between atoms: _268  and  _269
REMARK  109  A    between atoms: _268  and  _271
REMARK  110  A    between atoms: _271  and  _272
REMARK  111  A    between atoms: _272  and  _273
REMARK  112  A    between atoms: _273  and  _274
REMARK  113  A    between atoms: _283  and  _285
REMARK  114  A    between atoms: _285  and  _286
REMARK  115  A    between atoms: _285  and  _288
REMARK  116  A    between atoms: _288  and  _289
REMARK  117  A    between atoms: _292  and  _294
REMARK  118  A    between atoms: _294  and  _295
REMARK  119  A    between atoms: _294  and  _297
REMARK  120  A    between atoms: _297  and  _298
REMARK  121  A    between atoms: _298  and  _299
REMARK  122  A    between atoms: _299  and  _300
REMARK  123  A    between atoms: _300  and  _301
REMARK  124  A    between atoms: _305  and  _307
REMARK  125  A    between atoms: _307  and  _308
REMARK  126  A    between atoms: _307  and  _310
REMARK  127  A    between atoms: _310  and  _311
REMARK  128  A    between atoms: _314  and  _316
REMARK  129  A    between atoms: _316  and  _317
REMARK  130  A    between atoms: _316  and  _319
REMARK  131  A    between atoms: _319  and  _320
REMARK  132  A    between atoms: _320  and  _321
REMARK  133  A    between atoms: _326  and  _328
REMARK  134  A    between atoms: _328  and  _329
REMARK  135  A    between atoms: _328  and  _331
REMARK  136  A    between atoms: _331  and  _332
REMARK  137  A    between atoms: _335  and  _337
REMARK  138  A    between atoms: _337  and  _338
REMARK  139  A    between atoms: _337  and  _340
REMARK  140  A    between atoms: _340  and  _341
REMARK  141  A    between atoms: _346  and  _347
REMARK  142  A    between atoms: _349  and  _351
REMARK  143  A    between atoms: _351  and  _352
REMARK  144  A    between atoms: _351  and  _354
REMARK  145  A    between atoms: _354  and  _355
REMARK  146  A    between atoms: _358  and  _360
REMARK  147  A    between atoms: _360  and  _361
REMARK  148  A    between atoms: _360  and  _363
REMARK  149  A    between atoms: _365  and  _367
REMARK  150  A    between atoms: _367  and  _368
REMARK  151  A    between atoms: _371  and  _373
REMARK  152  A    between atoms: _373  and  _374
REMARK  153  A    between atoms: _373  and  _376
REMARK  154  A    between atoms: _376  and  _377
REMARK  155  A    between atoms: _377  and  _378
REMARK  156  A    between atoms: _378  and  _379
REMARK  157  A    between atoms: _379  and  _380
REMARK  158  A    between atoms: _384  and  _386
REMARK  159  A    between atoms: _386  and  _387
REMARK  160  A    between atoms: _386  and  _389
REMARK  161  A    between atoms: _389  and  _390
REMARK  162  A    between atoms: _393  and  _395
REMARK  163  A    between atoms: _395  and  _396
REMARK  164  A    between atoms: _399  and  _401
REMARK  165  A    between atoms: _401  and  _402
REMARK  166  A    between atoms: _401  and  _404
REMARK  167  A    between atoms: _404  and  _405
REMARK  168  A    between atoms: _405  and  _519
REMARK  169  A    between atoms: _406  and  _408
REMARK  170  A    between atoms: _408  and  _409
REMARK  171  A    between atoms: _408  and  _411
REMARK  172  A    between atoms: _411  and  _412
REMARK  173  A    between atoms: _412  and  _413
REMARK  174  A    between atoms: _413  and  _414
REMARK  175  A    between atoms: _414  and  _415
REMARK  176  A    between atoms: _419  and  _421
REMARK  177  A    between atoms: _421  and  _422
REMARK  178  A    between atoms: _424  and  _426
REMARK  179  A    between atoms: _426  and  _427
REMARK  180  A    between atoms: _426  and  _429
REMARK  181  A    between atoms: _429  and  _430
REMARK  182  A    between atoms: _433  and  _435
REMARK  183  A    between atoms: _435  and  _436
REMARK  184  A    between atoms: _435  and  _438
REMARK  185  A    between atoms: _438  and  _439
REMARK  186  A    between atoms: _441  and  _443
REMARK  187  A    between atoms: _443  and  _444
REMARK  188  A    between atoms: _446  and  _448
REMARK  189  A    between atoms: _448  and  _449
REMARK  190  A    between atoms: _451  and  _453
REMARK  191  A    between atoms: _453  and  _454
REMARK  192  A    between atoms: _453  and  _456
REMARK  193  A    between atoms: _456  and  _457
REMARK  194  A    between atoms: _460  and  _462
REMARK  195  A    between atoms: _462  and  _463
REMARK  196  A    between atoms: _462  and  _465
REMARK  197  A    between atoms: _465  and  _466
REMARK  198  A    between atoms: _469  and  _471
REMARK  199  A    between atoms: _471  and  _472
REMARK  200  A    between atoms: _471  and  _474
REMARK  201  A    between atoms: _474  and  _475
REMARK  202  A    between atoms: _477  and  _479
REMARK  203  A    between atoms: _479  and  _480
REMARK  204  A    between atoms: _479  and  _482
REMARK  205  A    between atoms: _482  and  _483
REMARK  206  A    between atoms: _493  and  _495
REMARK  207  A    between atoms: _495  and  _496
REMARK  208  A    between atoms: _498  and  _500
REMARK  209  A    between atoms: _500  and  _501
REMARK  210  A    between atoms: _500  and  _503
REMARK  211  A    between atoms: _503  and  _504
REMARK  212  A    between atoms: _504  and  _505
REMARK  213  A    between atoms: _508  and  _510
REMARK  214  A    between atoms: _510  and  _511
REMARK  215  A    between atoms: _513  and  _515
REMARK  216  A    between atoms: _515  and  _516
REMARK  217  A    between atoms: _515  and  _518
REMARK  218  A    between atoms: _518  and  _519
REMARK  219  A    between atoms: _520  and  _522
REMARK  220  A    between atoms: _522  and  _523
REMARK  221  A    between atoms: _526  and  _528
REMARK  222  A    between atoms: _528  and  _529
REMARK  223  A    between atoms: _528  and  _531
REMARK  224  A    between atoms: _531  and  _532
REMARK  225  A    between atoms: _532  and  _533
REMARK  226  A    between atoms: _538  and  _540
REMARK  227  A    between atoms: _540  and  _541
REMARK  228  A    between atoms: _540  and  _543
REMARK  229  A    between atoms: _543  and  _544
REMARK  230  A    between atoms: _544  and  _545
REMARK  231  A    between atoms: _545  and  _546
REMARK  232  A    between atoms: _556  and  _557
REMARK  233  A    between atoms: _562  and  _564
REMARK  234  A    between atoms: _564  and  _565
REMARK  235  A    between atoms: _567  and  _569
REMARK  236  A    between atoms: _569  and  _570
REMARK  237  A    between atoms: _569  and  _572
REMARK  238  A    between atoms: _575  and  _577
REMARK  239  A    between atoms: _577  and  _578
REMARK  240  A    between atoms: _577  and  _580
REMARK  241  A    between atoms: _580  and  _581
REMARK  242  A    between atoms: _586  and  _587
REMARK  243  A    between atoms: _589  and  _591
REMARK  244  A    between atoms: _591  and  _592
REMARK  245  A    between atoms: _591  and  _594
REMARK  246  A    between atoms: _594  and  _595
REMARK                            x       y       z     vdW  Elec       q    Type
REMARK                         _______ _______ _______ _____ _____    ______ ____
ROOT
ATOM      1  CA  ASP A   1      28.388  20.434  45.296  0.00  0.00    +0.144 C 
ENDROOT
BRANCH   1   2
ATOM      2  N   ASP A   1      28.002  21.564  44.462  0.00  0.00    -0.239 NA
ATOM      3  H   ASP A   1      27.107  21.520  43.934  0.00  0.00    +0.142 HD
ENDBRANCH   1   2
BRANCH   1   4
ATOM      4  C   ASP A   1      29.270  19.516  44.455  0.00  0.00    +0.225 C 
ATOM      5  O   ASP A   1      28.826  18.496  43.955  0.00  0.00    -0.287 OA
ENDBRANCH   1   4
BRANCH   1   6
ATOM      6  CB  ASP A   1      27.157  19.687  45.798  0.00  0.00    +0.139 C 
BRANCH   6   7
ATOM      7  CG  ASP A   1      27.489  18.681  46.909  0.00  0.00    +0.367 C 
ATOM      8  OD2 ASP A   1      28.653  18.640  47.366  0.00  0.00    -0.246 OA
ATOM      9  OD1 ASP A   1      26.563  17.944  47.337  0.00  0.00    -0.246 OA
ENDBRANCH   6   7
ENDBRANCH   1   6
TORSDOF 4
REMARK  Name = ../refined-set-2016/4crb/4crb_pocket.pdb
REMARK  246 active torsions:
REMARK  status: ('A' for Active; 'I' for Inactive)
REMARK    1  A    between atoms: _1  and  _5
REMARK    2  A    between atoms: _5  and  _6
REMARK    3  A    between atoms: _5  and  _8
REMARK    4  A    between atoms: _8  and  _9
REMARK    5  A    between atoms: _12  and  _14
REMARK    6  A    between atoms: _14  and  _15
REMARK    7  A    between atoms: _14  and  _17
REMARK    8  A    between atoms: _20  and  _22
REMARK    9  A    between atoms: _22  and  _23
REMARK   10  A    between atoms: _22  and  _25
REMARK   11  A    between atoms: _25  and  _26
REMARK   12  A    between atoms: _29  and  _31
REMARK   13  A    between atoms: _31  and  _32
REMARK   14  A    between atoms: _31  and  _34
REMARK   15  A    between atoms: _34  and  _35
REMARK   16  A    between atoms: _38  and  _40
REMARK   17  A    between atoms: _40  and  _41
REMARK   18  A    between atoms: _40  and  _43
REMARK   19  A    between atoms: _43  and  _44
REMARK   20  A    between atoms: _47  and  _49
REMARK   21  A    between atoms: _49  and  _50
REMARK   22  A    between atoms: _49  and  _52
REMARK   23  A    between atoms: _52  and  _53
REMARK   24  A    between atoms: _56  and  _58
REMARK   25  A    between atoms: _58  and  _59
REMARK   26  A    between atoms: _58  and  _61
REMARK   27  A    between atoms: _61  and  _62
REMARK   28  A    between atoms: _62  and  _63
REMARK   29  A    between atoms: _68  and  _70
REMARK   30  A    between atoms: _70  and  _71
REMARK   31  A    between atoms: _70  and  _73
REMARK   32  A    between atoms: _73  and  _74
REMARK   33  A    between atoms: _74  and  _75
REMARK   34  A    between atoms: _75  and  _76
REMARK   35  A    between atoms: _85  and  _87
REMARK   36  A    between atoms: _87  and  _88
REMARK   37  A    between atoms: _87  and  _90
REMARK   38  A    between atoms: _90  and  _91
REMARK   39  A    between atoms: _96  and  _98
REMARK   40  A    between atoms: _98  and  _99
REMARK   41  A    between atoms: _98  and  _101
REMARK   42  A    between atoms: _101  and  _102
REMARK   43  A    between atoms: _105  and  _107
REMARK   44  A    between atoms: _107  and  _108
REMARK   45  A    between atoms: _107  and  _110
REMARK   46  A    between atoms: _110  and  _111
REMARK   47  A    between atoms: _111  and  _146
REMARK   48  A    between atoms: _112  and  _114
REMARK   49  A    between atoms: _114  and  _115
REMARK   50  A    between atoms: _117  and  _119
REMARK   51  A    between atoms: _119  and  _120
REMARK   52  A    between atoms: _123  and  _125
REMARK   53  A    between atoms: _125  and  _126
REMARK   54  A    between atoms: _129  and  _131
REMARK   55  A    between atoms: _131  and  _132
REMARK   56  A    between atoms: _131  and  _134
REMARK   57  A    between atoms: _134  and  _135
REMARK   58  A    between atoms: _140  and  _142
REMARK   59  A    between atoms: _142  and  _143
REMARK   60  A    between atoms: _142  and  _145
REMARK   61  A    between atoms: _145  and  _146
REMARK   62  A    between atoms: _147  and  _149
REMARK   63  A    between atoms: _149  and  _150
REMARK   64  A    between atoms: _149  and  _152
REMARK   65  A    between atoms: _152  and  _153
REMARK   66  A    between atoms: _159  and  _161
REMARK   67  A    between atoms: _161  and  _162
REMARK   68  A    between atoms: _161  and  _164
REMARK   69  A    between atoms: _164  and  _165
REMARK   70  A    between atoms: _170  and  _171
REMARK   71  A    between atoms: _173  and  _175
REMARK   72  A    between atoms: _175  and  _176
REMARK   73  A    between atoms: _178  and  _180
REMARK   74  A    between atoms: _180  and  _181
REMARK   75  A    between atoms: _180  and  _183
REMARK   76  A    between atoms: _186  and  _188
REMARK   77  A    between atoms: _188  and  _189
REMARK   78  A    between atoms: _192  and  _194
REMARK   79  A    between atoms: _194  and  _195
REMARK   80  A    between atoms: _194  and  _197
REMARK   81  A    between atoms: _197  and  _198
REMARK   82  A    between atoms: _201  and  _203
REMARK   83  A    between atoms: _203  and  _204
REMARK   84  A    between atoms: _203  and  _206
REMARK   85  A    between atoms: _209  and  _211
REMARK   86  A    between atoms: _211  and  _212
REMARK   87  A    between atoms: _211  and  _214
REMARK   88  A    between atoms: _214  and  _215
REMARK   89  A    between atoms: _225  and  _227
REMARK   90  A    between atoms: _227  and  _228
REMARK   91  A    between atoms: _230  and  _232
REMARK   92  A    between atoms: _232  and  _233
REMARK   93  A    between atoms: _232  and  _235
REMARK   94  A    between atoms: _235  and  _236
REMARK   95  A    between atoms: _241  and  _242
REMARK   96  A    between atoms: _244  and  _246
REMARK   97  A    between atoms: _246  and  _247
REMARK   98  A    between atoms: _246  and  _249
REMARK   99  A    between atoms: _249  and  _250
REMARK  100  A    between atoms: _250  and  _251
REMARK  101  A    between atoms: _251  and  _252
REMARK  102  A    between atoms: _252  and  _253
REMARK  103  A    between atoms: _257  and  _259
REMARK  104  A    between atoms: _259  and  _260
REMARK  105  A    between atoms: _259  and  _262
REMARK  106  A    between atoms: _262  and  _263
REMARK  107  A    between atoms: _266  and  _268
REMARK  108  A    between atoms: _268  and  _269
REMARK  109  A    between atoms: _268  and  _271
REMARK  110  A    between atoms: _271  and  _272
REMARK  111  A    between atoms: _272  and  _273
REMARK  112  A    between atoms: _273  and  _274
REMARK  113  A    between atoms: _283  and  _285
REMARK  114  A    between atoms: _285  and  _286
REMARK  115  A    between atoms: _285  and  _288
REMARK  116  A    between atoms: _288  and  _289
REMARK  117  A    between atoms: _292  and  _294
REMARK  118  A    between atoms: _294  and  _295
REMARK  119  A    between atoms: _294  and  _297
REMARK  120  A    between atoms: _297  and  _298
REMARK  121  A    between atoms: _298  and  _299
REMARK  122  A    between atoms: _299  and  _300
REMARK  123  A    between atoms: _300  and  _301
REMARK  124  A    between atoms: _305  and  _307
REMARK  125  A    between atoms: _307  and  _308
REMARK  126  A    between atoms: _307  and  _310
REMARK  127  A    between atoms: _310  and  _311
REMARK  128  A    between atoms: _314  and  _316
REMARK  129  A    between atoms: _316  and  _317
REMARK  130  A    between atoms: _316  and  _319
REMARK  131  A    between atoms: _319  and  _320
REMARK  132  A    between atoms: _320  and  _321
REMARK  133  A    between atoms: _326  and  _328
REMARK  134  A    between atoms: _328  and  _329
REMARK  135  A    between atoms: _328  and  _331
REMARK  136  A    between atoms: _331  and  _332
REMARK  137  A    between atoms: _335  and  _337
REMARK  138  A    between atoms: _337  and  _338
REMARK  139  A    between atoms: _337  and  _340
REMARK  140  A    between atoms: _340  and  _341
REMARK  141  A    between atoms: _346  and  _347
REMARK  142  A    between atoms: _349  and  _351
REMARK  143  A    between atoms: _351  and  _352
REMARK  144  A    between atoms: _351  and  _354
REMARK  145  A    between atoms: _354  and  _355
REMARK  146  A    between atoms: _358  and  _360
REMARK  147  A    between atoms: _360  and  _361
REMARK  148  A    between atoms: _360  and  _363
REMARK  149  A    between atoms: _365  and  _367
REMARK  150  A    between atoms: _367  and  _368
REMARK  151  A    between atoms: _371  and  _373
REMARK  152  A    between atoms: _373  and  _374
REMARK  153  A    between atoms: _373  and  _376
REMARK  154  A    between atoms: _376  and  _377
REMARK  155  A    between atoms: _377  and  _378
REMARK  156  A    between atoms: _378  and  _379
REMARK  157  A    between atoms: _379  and  _380
REMARK  158  A    between atoms: _384  and  _386
REMARK  159  A    between atoms: _386  and  _387
REMARK  160  A    between atoms: _386  and  _389
REMARK  161  A    between atoms: _389  and  _390
REMARK  162  A    between atoms: _393  and  _395
REMARK  163  A    between atoms: _395  and  _396
REMARK  164  A    between atoms: _399  and  _401
REMARK  165  A    between atoms: _401  and  _402
REMARK  166  A    between atoms: _401  and  _404
REMARK  167  A    between atoms: _404  and  _405
REMARK  168  A    between atoms: _405  and  _519
REMARK  169  A    between atoms: _406  and  _408
REMARK  170  A    between atoms: _408  and  _409
REMARK  171  A    between atoms: _408  and  _411
REMARK  172  A    between atoms: _411  and  _412
REMARK  173  A    between atoms: _412  and  _413
REMARK  174  A    between atoms: _413  and  _414
REMARK  175  A    between atoms: _414  and  _415
REMARK  176  A    between atoms: _419  and  _421
REMARK  177  A    between atoms: _421  and  _422
REMARK  178  A    between atoms: _424  and  _426
REMARK  179  A    between atoms: _426  and  _427
REMARK  180  A    between atoms: _426  and  _429
REMARK  181  A    between atoms: _429  and  _430
REMARK  182  A    between atoms: _433  and  _435
REMARK  183  A    between atoms: _435  and  _436
REMARK  184  A    between atoms: _435  and  _438
REMARK  185  A    between atoms: _438  and  _439
REMARK  186  A    between atoms: _441  and  _443
REMARK  187  A    between atoms: _443  and  _444
REMARK  188  A    between atoms: _446  and  _448
REMARK  189  A    between atoms: _448  and  _449
REMARK  190  A    between atoms: _451  and  _453
REMARK  191  A    between atoms: _453  and  _454
REMARK  192  A    between atoms: _453  and  _456
REMARK  193  A    between atoms: _456  and  _457
REMARK  194  A    between atoms: _460  and  _462
REMARK  195  A    between atoms: _462  and  _463
REMARK  196  A    between atoms: _462  and  _465
REMARK  197  A    between atoms: _465  and  _466
REMARK  198  A    between atoms: _469  and  _471
REMARK  199  A    between atoms: _471  and  _472
REMARK  200  A    between atoms: _471  and  _474
REMARK  201  A    between atoms: _474  and  _475
REMARK  202  A    between atoms: _477  and  _479
REMARK  203  A    between atoms: _479  and  _480
REMARK  204  A    between atoms: _479  and  _482
REMARK  205  A    between atoms: _482  and  _483
REMARK  206  A    between atoms: _493  and  _495
REMARK  207  A    between atoms: _495  and  _496
REMARK  208  A    between atoms: _498  and  _500
REMARK  209  A    between atoms: _500  and  _501
REMARK  210  A    between atoms: _500  and  _503
REMARK  211  A    between atoms: _503  and  _504
REMARK  212  A    between atoms: _504  and  _505
REMARK  213  A    between atoms: _508  and  _510
REMARK  214  A    between atoms: _510  and  _511
REMARK  215  A    between atoms: _513  and  _515
REMARK  216  A    between atoms: _515  and  _516
REMARK  217  A    between atoms: _515  and  _518
REMARK  218  A    between atoms: _518  and  _519
REMARK  219  A    between atoms: _520  and  _522
REMARK  220  A    between atoms: _522  and  _523
REMARK  221  A    between atoms: _526  and  _528
REMARK  222  A    between atoms: _528  and  _529
REMARK  223  A    between atoms: _528  and  _531
REMARK  224  A    between atoms: _531  and  _532
REMARK  225  A    between atoms: _532  and  _533
REMARK  226  A    between atoms: _538  and  _540
REMARK  227  A    between atoms: _540  and  _541
REMARK  228  A    between atoms: _540  and  _543
REMARK  229  A    between atoms: _543  and  _544
REMARK  230  A    between atoms: _544  and  _545
REMARK  231  A    between atoms: _545  and  _546
REMARK  232  A    between atoms: _556  and  _557
REMARK  233  A    between atoms: _562  and  _564
REMARK  234  A    between atoms: _564  and  _565
REMARK  235  A    between atoms: _567  and  _569
REMARK  236  A    between atoms: _569  and  _570
REMARK  237  A    between atoms: _569  and  _572
REMARK  238  A    between atoms: _575  and  _577
REMARK  239  A    between atoms: _577  and  _578
REMARK  240  A    between atoms: _577  and  _580
REMARK  241  A    between atoms: _580  and  _581
REMARK  242  A    between atoms: _586  and  _587
REMARK  243  A    between atoms: _589  and  _591
REMARK  244  A    between atoms: _591  and  _592
REMARK  245  A    between atoms: _591  and  _594
REMARK  246  A    between atoms: _594  and  _595
REMARK                            x       y       z     vdW  Elec       q    Type
REMARK                         _______ _______ _______ _____ _____    ______ ____
ROOT
ATOM      1  CA  VAL A   1      22.483   5.623  40.277  0.00  0.00    +0.133 C 
ENDROOT
BRANCH   1   2
ATOM      2  CB  VAL A   1      21.653   6.527  41.230  0.00  0.00    +0.023 C 
ATOM      3  CG2 VAL A   1      22.522   7.064  42.366  0.00  0.00    +0.002 C 
ATOM      4  CG1 VAL A   1      20.456   5.786  41.799  0.00  0.00    +0.002 C 
ENDBRANCH   1   2
BRANCH   1   5
ATOM      5  N   VAL A   1      21.724   5.184  39.099  0.00  0.00    -0.239 NA
ATOM      6  H   VAL A   1      20.802   4.722  39.235  0.00  0.00    +0.142 HD
ENDBRANCH   1   5
BRANCH   1   7
ATOM      7  C   VAL A   1      23.003   4.385  41.005  0.00  0.00    +0.224 C 
ATOM      8  O   VAL A   1      22.301   3.380  41.130  0.00  0.00    -0.287 OA
ENDBRANCH   1   7
TORSDOF 3
REMARK  Name = ../refined-set-2016/4crb/4crb_pocket.pdb
REMARK  246 active torsions:
REMARK  status: ('A' for Active; 'I' for Inactive)
REMARK    1  A    between atoms: _1  and  _5
REMARK    2  A    between atoms: _5  and  _6
REMARK    3  A    between atoms: _5  and  _8
REMARK    4  A    between atoms: _8  and  _9
REMARK    5  A    between atoms: _12  and  _14
REMARK    6  A    between atoms: _14  and  _15
REMARK    7  A    between atoms: _14  and  _17
REMARK    8  A    between atoms: _20  and  _22
REMARK    9  A    between atoms: _22  and  _23
REMARK   10  A    between atoms: _22  and  _25
REMARK   11  A    between atoms: _25  and  _26
REMARK   12  A    between atoms: _29  and  _31
REMARK   13  A    between atoms: _31  and  _32
REMARK   14  A    between atoms: _31  and  _34
REMARK   15  A    between atoms: _34  and  _35
REMARK   16  A    between atoms: _38  and  _40
REMARK   17  A    between atoms: _40  and  _41
REMARK   18  A    between atoms: _40  and  _43
REMARK   19  A    between atoms: _43  and  _44
REMARK   20  A    between atoms: _47  and  _49
REMARK   21  A    between atoms: _49  and  _50
REMARK   22  A    between atoms: _49  and  _52
REMARK   23  A    between atoms: _52  and  _53
REMARK   24  A    between atoms: _56  and  _58
REMARK   25  A    between atoms: _58  and  _59
REMARK   26  A    between atoms: _58  and  _61
REMARK   27  A    between atoms: _61  and  _62
REMARK   28  A    between atoms: _62  and  _63
REMARK   29  A    between atoms: _68  and  _70
REMARK   30  A    between atoms: _70  and  _71
REMARK   31  A    between atoms: _70  and  _73
REMARK   32  A    between atoms: _73  and  _74
REMARK   33  A    between atoms: _74  and  _75
REMARK   34  A    between atoms: _75  and  _76
REMARK   35  A    between atoms: _85  and  _87
REMARK   36  A    between atoms: _87  and  _88
REMARK   37  A    between atoms: _87  and  _90
REMARK   38  A    between atoms: _90  and  _91
REMARK   39  A    between atoms: _96  and  _98
REMARK   40  A    between atoms: _98  and  _99
REMARK   41  A    between atoms: _98  and  _101
REMARK   42  A    between atoms: _101  and  _102
REMARK   43  A    between atoms: _105  and  _107
REMARK   44  A    between atoms: _107  and  _108
REMARK   45  A    between atoms: _107  and  _110
REMARK   46  A    between atoms: _110  and  _111
REMARK   47  A    between atoms: _111  and  _146
REMARK   48  A    between atoms: _112  and  _114
REMARK   49  A    between atoms: _114  and  _115
REMARK   50  A    between atoms: _117  and  _119
REMARK   51  A    between atoms: _119  and  _120
REMARK   52  A    between atoms: _123  and  _125
REMARK   53  A    between atoms: _125  and  _126
REMARK   54  A    between atoms: _129  and  _131
REMARK   55  A    between atoms: _131  and  _132
REMARK   56  A    between atoms: _131  and  _134
REMARK   57  A    between atoms: _134  and  _135
REMARK   58  A    between atoms: _140  and  _142
REMARK   59  A    between atoms: _142  and  _143
REMARK   60  A    between atoms: _142  and  _145
REMARK   61  A    between atoms: _145  and  _146
REMARK   62  A    between atoms: _147  and  _149
REMARK   63  A    between atoms: _149  and  _150
REMARK   64  A    between atoms: _149  and  _152
REMARK   65  A    between atoms: _152  and  _153
REMARK   66  A    between atoms: _159  and  _161
REMARK   67  A    between atoms: _161  and  _162
REMARK   68  A    between atoms: _161  and  _164
REMARK   69  A    between atoms: _164  and  _165
REMARK   70  A    between atoms: _170  and  _171
REMARK   71  A    between atoms: _173  and  _175
REMARK   72  A    between atoms: _175  and  _176
REMARK   73  A    between atoms: _178  and  _180
REMARK   74  A    between atoms: _180  and  _181
REMARK   75  A    between atoms: _180  and  _183
REMARK   76  A    between atoms: _186  and  _188
REMARK   77  A    between atoms: _188  and  _189
REMARK   78  A    between atoms: _192  and  _194
REMARK   79  A    between atoms: _194  and  _195
REMARK   80  A    between atoms: _194  and  _197
REMARK   81  A    between atoms: _197  and  _198
REMARK   82  A    between atoms: _201  and  _203
REMARK   83  A    between atoms: _203  and  _204
REMARK   84  A    between atoms: _203  and  _206
REMARK   85  A    between atoms: _209  and  _211
REMARK   86  A    between atoms: _211  and  _212
REMARK   87  A    between atoms: _211  and  _214
REMARK   88  A    between atoms: _214  and  _215
REMARK   89  A    between atoms: _225  and  _227
REMARK   90  A    between atoms: _227  and  _228
REMARK   91  A    between atoms: _230  and  _232
REMARK   92  A    between atoms: _232  and  _233
REMARK   93  A    between atoms: _232  and  _235
REMARK   94  A    between atoms: _235  and  _236
REMARK   95  A    between atoms: _241  and  _242
REMARK   96  A    between atoms: _244  and  _246
REMARK   97  A    between atoms: _246  and  _247
REMARK   98  A    between atoms: _246  and  _249
REMARK   99  A    between atoms: _249  and  _250
REMARK  100  A    between atoms: _250  and  _251
REMARK  101  A    between atoms: _251  and  _252
REMARK  102  A    between atoms: _252  and  _253
REMARK  103  A    between atoms: _257  and  _259
REMARK  104  A    between atoms: _259  and  _260
REMARK  105  A    between atoms: _259  and  _262
REMARK  106  A    between atoms: _262  and  _263
REMARK  107  A    between atoms: _266  and  _268
REMARK  108  A    between atoms: _268  and  _269
REMARK  109  A    between atoms: _268  and  _271
REMARK  110  A    between atoms: _271  and  _272
REMARK  111  A    between atoms: _272  and  _273
REMARK  112  A    between atoms: _273  and  _274
REMARK  113  A    between atoms: _283  and  _285
REMARK  114  A    between atoms: _285  and  _286
REMARK  115  A    between atoms: _285  and  _288
REMARK  116  A    between atoms: _288  and  _289
REMARK  117  A    between atoms: _292  and  _294
REMARK  118  A    between atoms: _294  and  _295
REMARK  119  A    between atoms: _294  and  _297
REMARK  120  A    between atoms: _297  and  _298
REMARK  121  A    between atoms: _298  and  _299
REMARK  122  A    between atoms: _299  and  _300
REMARK  123  A    between atoms: _300  and  _301
REMARK  124  A    between atoms: _305  and  _307
REMARK  125  A    between atoms: _307  and  _308
REMARK  126  A    between atoms: _307  and  _310
REMARK  127  A    between atoms: _310  and  _311
REMARK  128  A    between atoms: _314  and  _316
REMARK  129  A    between atoms: _316  and  _317
REMARK  130  A    between atoms: _316  and  _319
REMARK  131  A    between atoms: _319  and  _320
REMARK  132  A    between atoms: _320  and  _321
REMARK  133  A    between atoms: _326  and  _328
REMARK  134  A    between atoms: _328  and  _329
REMARK  135  A    between atoms: _328  and  _331
REMARK  136  A    between atoms: _331  and  _332
REMARK  137  A    between atoms: _335  and  _337
REMARK  138  A    between atoms: _337  and  _338
REMARK  139  A    between atoms: _337  and  _340
REMARK  140  A    between atoms: _340  and  _341
REMARK  141  A    between atoms: _346  and  _347
REMARK  142  A    between atoms: _349  and  _351
REMARK  143  A    between atoms: _351  and  _352
REMARK  144  A    between atoms: _351  and  _354
REMARK  145  A    between atoms: _354  and  _355
REMARK  146  A    between atoms: _358  and  _360
REMARK  147  A    between atoms: _360  and  _361
REMARK  148  A    between atoms: _360  and  _363
REMARK  149  A    between atoms: _365  and  _367
REMARK  150  A    between atoms: _367  and  _368
REMARK  151  A    between atoms: _371  and  _373
REMARK  152  A    between atoms: _373  and  _374
REMARK  153  A    between atoms: _373  and  _376
REMARK  154  A    between atoms: _376  and  _377
REMARK  155  A    between atoms: _377  and  _378
REMARK  156  A    between atoms: _378  and  _379
REMARK  157  A    between atoms: _379  and  _380
REMARK  158  A    between atoms: _384  and  _386
REMARK  159  A    between atoms: _386  and  _387
REMARK  160  A    between atoms: _386  and  _389
REMARK  161  A    between atoms: _389  and  _390
REMARK  162  A    between atoms: _393  and  _395
REMARK  163  A    between atoms: _395  and  _396
REMARK  164  A    between atoms: _399  and  _401
REMARK  165  A    between atoms: _401  and  _402
REMARK  166  A    between atoms: _401  and  _404
REMARK  167  A    between atoms: _404  and  _405
REMARK  168  A    between atoms: _405  and  _519
REMARK  169  A    between atoms: _406  and  _408
REMARK  170  A    between atoms: _408  and  _409
REMARK  171  A    between atoms: _408  and  _411
REMARK  172  A    between atoms: _411  and  _412
REMARK  173  A    between atoms: _412  and  _413
REMARK  174  A    between atoms: _413  and  _414
REMARK  175  A    between atoms: _414  and  _415
REMARK  176  A    between atoms: _419  and  _421
REMARK  177  A    between atoms: _421  and  _422
REMARK  178  A    between atoms: _424  and  _426
REMARK  179  A    between atoms: _426  and  _427
REMARK  180  A    between atoms: _426  and  _429
REMARK  181  A    between atoms: _429  and  _430
REMARK  182  A    between atoms: _433  and  _435
REMARK  183  A    between atoms: _435  and  _436
REMARK  184  A    between atoms: _435  and  _438
REMARK  185  A    between atoms: _438  and  _439
REMARK  186  A    between atoms: _441  and  _443
REMARK  187  A    between atoms: _443  and  _444
REMARK  188  A    between atoms: _446  and  _448
REMARK  189  A    between atoms: _448  and  _449
REMARK  190  A    between atoms: _451  and  _453
REMARK  191  A    between atoms: _453  and  _454
REMARK  192  A    between atoms: _453  and  _456
REMARK  193  A    between atoms: _456  and  _457
REMARK  194  A    between atoms: _460  and  _462
REMARK  195  A    between atoms: _462  and  _463
REMARK  196  A    between atoms: _462  and  _465
REMARK  197  A    between atoms: _465  and  _466
REMARK  198  A    between atoms: _469  and  _471
REMARK  199  A    between atoms: _471  and  _472
REMARK  200  A    between atoms: _471  and  _474
REMARK  201  A    between atoms: _474  and  _475
REMARK  202  A    between atoms: _477  and  _479
REMARK  203  A    between atoms: _479  and  _480
REMARK  204  A    between atoms: _479  and  _482
REMARK  205  A    between atoms: _482  and  _483
REMARK  206  A    between atoms: _493  and  _495
REMARK  207  A    between atoms: _495  and  _496
REMARK  208  A    between atoms: _498  and  _500
REMARK  209  A    between atoms: _500  and  _501
REMARK  210  A    between atoms: _500  and  _503
REMARK  211  A    between atoms: _503  and  _504
REMARK  212  A    between atoms: _504  and  _505
REMARK  213  A    between atoms: _508  and  _510
REMARK  214  A    between atoms: _510  and  _511
REMARK  215  A    between atoms: _513  and  _515
REMARK  216  A    between atoms: _515  and  _516
REMARK  217  A    between atoms: _515  and  _518
REMARK  218  A    between atoms: _518  and  _519
REMARK  219  A    between atoms: _520  and  _522
REMARK  220  A    between atoms: _522  and  _523
REMARK  221  A    between atoms: _526  and  _528
REMARK  222  A    between atoms: _528  and  _529
REMARK  223  A    between atoms: _528  and  _531
REMARK  224  A    between atoms: _531  and  _532
REMARK  225  A    between atoms: _532  and  _533
REMARK  226  A    between atoms: _538  and  _540
REMARK  227  A    between atoms: _540  and  _541
REMARK  228  A    between atoms: _540  and  _543
REMARK  229  A    between atoms: _543  and  _544
REMARK  230  A    between atoms: _544  and  _545
REMARK  231  A    between atoms: _545  and  _546
REMARK  232  A    between atoms: _556  and  _557
REMARK  233  A    between atoms: _562  and  _564
REMARK  234  A    between atoms: _564  and  _565
REMARK  235  A    between atoms: _567  and  _569
REMARK  236  A    between atoms: _569  and  _570
REMARK  237  A    between atoms: _569  and  _572
REMARK  238  A    between atoms: _575  and  _577
REMARK  239  A    between atoms: _577  and  _578
REMARK  240  A    between atoms: _577  and  _580
REMARK  241  A    between atoms: _580  and  _581
REMARK  242  A    between atoms: _586  and  _587
REMARK  243  A    between atoms: _589  and  _591
REMARK  244  A    between atoms: _591  and  _592
REMARK  245  A    between atoms: _591  and  _594
REMARK  246  A    between atoms: _594  and  _595
REMARK                            x       y       z     vdW  Elec       q    Type
REMARK                         _______ _______ _______ _____ _____    ______ ____
ROOT
ATOM      1  C   TRP A   1      26.268   1.825  49.962  0.00  0.00    +0.239 C 
ATOM      2  O   TRP A   1      26.394   1.397  51.112  0.00  0.00    -0.274 OA
ATOM      3  N   GLY A   2      25.370   2.747  49.630  0.00  0.00    -0.296 N 
ATOM      4  H   GLY A   2      25.211   2.959  48.624  0.00  0.00    +0.150 HD
ENDROOT
BRANCH   1   5
ATOM      5  CA  TRP A   1      27.129   1.265  48.817  0.00  0.00    +0.149 C 
BRANCH   5   6
ATOM      6  N   TRP A   1      27.138   2.159  47.662  0.00  0.00    -0.238 NA
ATOM      7  H   TRP A   1      27.763   2.990  47.688  0.00  0.00    +0.142 HD
ENDBRANCH   5   6
BRANCH   5   8
ATOM      8  CB  TRP A   1      28.558   1.018  49.299  0.00  0.00    +0.054 C 
BRANCH   8   9
ATOM      9  CG  TRP A   1      29.390   0.169  48.372  0.00  0.00    -0.002 A 
ATOM     10  CD1 TRP A   1      29.470  -1.184  48.369  0.00  0.00    +0.068 A 
ATOM     11  NE1 TRP A   1      30.343  -1.613  47.397  0.00  0.00    -0.352 N 
ATOM     12  HE1 TRP A   1      30.574  -2.605  47.187  0.00  0.00    +0.166 HD
ATOM     13  CE2 TRP A   1      30.859  -0.521  46.750  0.00  0.00    +0.056 A 
ATOM     14  CZ2 TRP A   1      31.772  -0.448  45.696  0.00  0.00    +0.017 A 
ATOM     15  CH2 TRP A   1      32.124   0.790  45.250  0.00  0.00    +0.001 A 
ATOM     16  CZ3 TRP A   1      31.569   1.962  45.821  0.00  0.00    +0.000 A 
ATOM     17  CE3 TRP A   1      30.653   1.886  46.866  0.00  0.00    +0.001 A 
ATOM     18  CD2 TRP A   1      30.280   0.625  47.337  0.00  0.00    +0.013 A 
ENDBRANCH   8   9
ENDBRANCH   5   8
ENDBRANCH   1   5
BRANCH   3  19
ATOM     19  CA  GLY A   2      24.601   3.470  50.640  0.00  0.00    +0.176 C 
BRANCH  19  20
ATOM     20  C   GLY A   2      23.470   2.644  51.224  0.00  0.00    +0.243 C 
ATOM     21  N   TYR A   3      22.777   3.241  52.186  0.00  0.00    -0.298 N 
ATOM     22  H   TYR A   3      23.054   4.202  52.470  0.00  0.00    +0.150 HD
ATOM     23  O   GLY A   2      23.225   1.514  50.819  0.00  0.00    -0.273 OA
BRANCH  21  24
ATOM     24  CA  TYR A   3      21.644   2.615  52.866  0.00  0.00    +0.141 C 
BRANCH  24  25
ATOM     25  C   TYR A   3      20.568   2.126  51.894  0.00  0.00    +0.227 C 
ATOM     26  O   TYR A   3      20.355   2.722  50.831  0.00  0.00    -0.286 OA
ENDBRANCH  24  25
BRANCH  24  27
ATOM     27  CB  TYR A   3      20.968   3.635  53.781  0.00  0.00    +0.054 C 
BRANCH  27  28
ATOM     28  CG  TYR A   3      21.733   4.134  54.989  0.00  0.00    -0.020 A 
ATOM     29  CD2 TYR A   3      21.071   4.895  55.944  0.00  0.00    -0.001 A 
ATOM     30  CE2 TYR A   3      21.727   5.393  57.056  0.00  0.00    +0.036 A 
ATOM     31  CZ  TYR A   3      23.067   5.135  57.223  0.00  0.00    +0.134 A 
ATOM     32  CE1 TYR A   3      23.770   4.372  56.284  0.00  0.00    +0.036 A 
ATOM     33  CD1 TYR A   3      23.103   3.885  55.174  0.00  0.00    -0.001 A 
BRANCH  31  34
ATOM     34  OH  TYR A   3      23.693   5.652  58.328  0.00  0.00    -0.506 OA
ATOM     35  HH  TYR A   3      24.647   5.389  58.319  0.00  0.00    +0.292 HD
ENDBRANCH  31  34
ENDBRANCH  27  28
ENDBRANCH  24  27
ENDBRANCH  21  24
ENDBRANCH  19  20
ENDBRANCH   3  19
TORSDOF 11
REMARK  Name = ../refined-set-2016/4crb/4crb_pocket.pdb
REMARK  246 active torsions:
REMARK  status: ('A' for Active; 'I' for Inactive)
REMARK    1  A    between atoms: _1  and  _5
REMARK    2  A    between atoms: _5  and  _6
REMARK    3  A    between atoms: _5  and  _8
REMARK    4  A    between atoms: _8  and  _9
REMARK    5  A    between atoms: _12  and  _14
REMARK    6  A    between atoms: _14  and  _15
REMARK    7  A    between atoms: _14  and  _17
REMARK    8  A    between atoms: _20  and  _22
REMARK    9  A    between atoms: _22  and  _23
REMARK   10  A    between atoms: _22  and  _25
REMARK   11  A    between atoms: _25  and  _26
REMARK   12  A    between atoms: _29  and  _31
REMARK   13  A    between atoms: _31  and  _32
REMARK   14  A    between atoms: _31  and  _34
REMARK   15  A    between atoms: _34  and  _35
REMARK   16  A    between atoms: _38  and  _40
REMARK   17  A    between atoms: _40  and  _41
REMARK   18  A    between atoms: _40  and  _43
REMARK   19  A    between atoms: _43  and  _44
REMARK   20  A    between atoms: _47  and  _49
REMARK   21  A    between atoms: _49  and  _50
REMARK   22  A    between atoms: _49  and  _52
REMARK   23  A    between atoms: _52  and  _53
REMARK   24  A    between atoms: _56  and  _58
REMARK   25  A    between atoms: _58  and  _59
REMARK   26  A    between atoms: _58  and  _61
REMARK   27  A    between atoms: _61  and  _62
REMARK   28  A    between atoms: _62  and  _63
REMARK   29  A    between atoms: _68  and  _70
REMARK   30  A    between atoms: _70  and  _71
REMARK   31  A    between atoms: _70  and  _73
REMARK   32  A    between atoms: _73  and  _74
REMARK   33  A    between atoms: _74  and  _75
REMARK   34  A    between atoms: _75  and  _76
REMARK   35  A    between atoms: _85  and  _87
REMARK   36  A    between atoms: _87  and  _88
REMARK   37  A    between atoms: _87  and  _90
REMARK   38  A    between atoms: _90  and  _91
REMARK   39  A    between atoms: _96  and  _98
REMARK   40  A    between atoms: _98  and  _99
REMARK   41  A    between atoms: _98  and  _101
REMARK   42  A    between atoms: _101  and  _102
REMARK   43  A    between atoms: _105  and  _107
REMARK   44  A    between atoms: _107  and  _108
REMARK   45  A    between atoms: _107  and  _110
REMARK   46  A    between atoms: _110  and  _111
REMARK   47  A    between atoms: _111  and  _146
REMARK   48  A    between atoms: _112  and  _114
REMARK   49  A    between atoms: _114  and  _115
REMARK   50  A    between atoms: _117  and  _119
REMARK   51  A    between atoms: _119  and  _120
REMARK   52  A    between atoms: _123  and  _125
REMARK   53  A    between atoms: _125  and  _126
REMARK   54  A    between atoms: _129  and  _131
REMARK   55  A    between atoms: _131  and  _132
REMARK   56  A    between atoms: _131  and  _134
REMARK   57  A    between atoms: _134  and  _135
REMARK   58  A    between atoms: _140  and  _142
REMARK   59  A    between atoms: _142  and  _143
REMARK   60  A    between atoms: _142  and  _145
REMARK   61  A    between atoms: _145  and  _146
REMARK   62  A    between atoms: _147  and  _149
REMARK   63  A    between atoms: _149  and  _150
REMARK   64  A    between atoms: _149  and  _152
REMARK   65  A    between atoms: _152  and  _153
REMARK   66  A    between atoms: _159  and  _161
REMARK   67  A    between atoms: _161  and  _162
REMARK   68  A    between atoms: _161  and  _164
REMARK   69  A    between atoms: _164  and  _165
REMARK   70  A    between atoms: _170  and  _171
REMARK   71  A    between atoms: _173  and  _175
REMARK   72  A    between atoms: _175  and  _176
REMARK   73  A    between atoms: _178  and  _180
REMARK   74  A    between atoms: _180  and  _181
REMARK   75  A    between atoms: _180  and  _183
REMARK   76  A    between atoms: _186  and  _188
REMARK   77  A    between atoms: _188  and  _189
REMARK   78  A    between atoms: _192  and  _194
REMARK   79  A    between atoms: _194  and  _195
REMARK   80  A    between atoms: _194  and  _197
REMARK   81  A    between atoms: _197  and  _198
REMARK   82  A    between atoms: _201  and  _203
REMARK   83  A    between atoms: _203  and  _204
REMARK   84  A    between atoms: _203  and  _206
REMARK   85  A    between atoms: _209  and  _211
REMARK   86  A    between atoms: _211  and  _212
REMARK   87  A    between atoms: _211  and  _214
REMARK   88  A    between atoms: _214  and  _215
REMARK   89  A    between atoms: _225  and  _227
REMARK   90  A    between atoms: _227  and  _228
REMARK   91  A    between atoms: _230  and  _232
REMARK   92  A    between atoms: _232  and  _233
REMARK   93  A    between atoms: _232  and  _235
REMARK   94  A    between atoms: _235  and  _236
REMARK   95  A    between atoms: _241  and  _242
REMARK   96  A    between atoms: _244  and  _246
REMARK   97  A    between atoms: _246  and  _247
REMARK   98  A    between atoms: _246  and  _249
REMARK   99  A    between atoms: _249  and  _250
REMARK  100  A    between atoms: _250  and  _251
REMARK  101  A    between atoms: _251  and  _252
REMARK  102  A    between atoms: _252  and  _253
REMARK  103  A    between atoms: _257  and  _259
REMARK  104  A    between atoms: _259  and  _260
REMARK  105  A    between atoms: _259  and  _262
REMARK  106  A    between atoms: _262  and  _263
REMARK  107  A    between atoms: _266  and  _268
REMARK  108  A    between atoms: _268  and  _269
REMARK  109  A    between atoms: _268  and  _271
REMARK  110  A    between atoms: _271  and  _272
REMARK  111  A    between atoms: _272  and  _273
REMARK  112  A    between atoms: _273  and  _274
REMARK  113  A    between atoms: _283  and  _285
REMARK  114  A    between atoms: _285  and  _286
REMARK  115  A    between atoms: _285  and  _288
REMARK  116  A    between atoms: _288  and  _289
REMARK  117  A    between atoms: _292  and  _294
REMARK  118  A    between atoms: _294  and  _295
REMARK  119  A    between atoms: _294  and  _297
REMARK  120  A    between atoms: _297  and  _298
REMARK  121  A    between atoms: _298  and  _299
REMARK  122  A    between atoms: _299  and  _300
REMARK  123  A    between atoms: _300  and  _301
REMARK  124  A    between atoms: _305  and  _307
REMARK  125  A    between atoms: _307  and  _308
REMARK  126  A    between atoms: _307  and  _310
REMARK  127  A    between atoms: _310  and  _311
REMARK  128  A    between atoms: _314  and  _316
REMARK  129  A    between atoms: _316  and  _317
REMARK  130  A    between atoms: _316  and  _319
REMARK  131  A    between atoms: _319  and  _320
REMARK  132  A    between atoms: _320  and  _321
REMARK  133  A    between atoms: _326  and  _328
REMARK  134  A    between atoms: _328  and  _329
REMARK  135  A    between atoms: _328  and  _331
REMARK  136  A    between atoms: _331  and  _332
REMARK  137  A    between atoms: _335  and  _337
REMARK  138  A    between atoms: _337  and  _338
REMARK  139  A    between atoms: _337  and  _340
REMARK  140  A    between atoms: _340  and  _341
REMARK  141  A    between atoms: _346  and  _347
REMARK  142  A    between atoms: _349  and  _351
REMARK  143  A    between atoms: _351  and  _352
REMARK  144  A    between atoms: _351  and  _354
REMARK  145  A    between atoms: _354  and  _355
REMARK  146  A    between atoms: _358  and  _360
REMARK  147  A    between atoms: _360  and  _361
REMARK  148  A    between atoms: _360  and  _363
REMARK  149  A    between atoms: _365  and  _367
REMARK  150  A    between atoms: _367  and  _368
REMARK  151  A    between atoms: _371  and  _373
REMARK  152  A    between atoms: _373  and  _374
REMARK  153  A    between atoms: _373  and  _376
REMARK  154  A    between atoms: _376  and  _377
REMARK  155  A    between atoms: _377  and  _378
REMARK  156  A    between atoms: _378  and  _379
REMARK  157  A    between atoms: _379  and  _380
REMARK  158  A    between atoms: _384  and  _386
REMARK  159  A    between atoms: _386  and  _387
REMARK  160  A    between atoms: _386  and  _389
REMARK  161  A    between atoms: _389  and  _390
REMARK  162  A    between atoms: _393  and  _395
REMARK  163  A    between atoms: _395  and  _396
REMARK  164  A    between atoms: _399  and  _401
REMARK  165  A    between atoms: _401  and  _402
REMARK  166  A    between atoms: _401  and  _404
REMARK  167  A    between atoms: _404  and  _405
REMARK  168  A    between atoms: _405  and  _519
REMARK  169  A    between atoms: _406  and  _408
REMARK  170  A    between atoms: _408  and  _409
REMARK  171  A    between atoms: _408  and  _411
REMARK  172  A    between atoms: _411  and  _412
REMARK  173  A    between atoms: _412  and  _413
REMARK  174  A    between atoms: _413  and  _414
REMARK  175  A    between atoms: _414  and  _415
REMARK  176  A    between atoms: _419  and  _421
REMARK  177  A    between atoms: _421  and  _422
REMARK  178  A    between atoms: _424  and  _426
REMARK  179  A    between atoms: _426  and  _427
REMARK  180  A    between atoms: _426  and  _429
REMARK  181  A    between atoms: _429  and  _430
REMARK  182  A    between atoms: _433  and  _435
REMARK  183  A    between atoms: _435  and  _436
REMARK  184  A    between atoms: _435  and  _438
REMARK  185  A    between atoms: _438  and  _439
REMARK  186  A    between atoms: _441  and  _443
REMARK  187  A    between atoms: _443  and  _444
REMARK  188  A    between atoms: _446  and  _448
REMARK  189  A    between atoms: _448  and  _449
REMARK  190  A    between atoms: _451  and  _453
REMARK  191  A    between atoms: _453  and  _454
REMARK  192  A    between atoms: _453  and  _456
REMARK  193  A    between atoms: _456  and  _457
REMARK  194  A    between atoms: _460  and  _462
REMARK  195  A    between atoms: _462  and  _463
REMARK  196  A    between atoms: _462  and  _465
REMARK  197  A    between atoms: _465  and  _466
REMARK  198  A    between atoms: _469  and  _471
REMARK  199  A    between atoms: _471  and  _472
REMARK  200  A    between atoms: _471  and  _474
REMARK  201  A    between atoms: _474  and  _475
REMARK  202  A    between atoms: _477  and  _479
REMARK  203  A    between atoms: _479  and  _480
REMARK  204  A    between atoms: _479  and  _482
REMARK  205  A    between atoms: _482  and  _483
REMARK  206  A    between atoms: _493  and  _495
REMARK  207  A    between atoms: _495  and  _496
REMARK  208  A    between atoms: _498  and  _500
REMARK  209  A    between atoms: _500  and  _501
REMARK  210  A    between atoms: _500  and  _503
REMARK  211  A    between atoms: _503  and  _504
REMARK  212  A    between atoms: _504  and  _505
REMARK  213  A    between atoms: _508  and  _510
REMARK  214  A    between atoms: _510  and  _511
REMARK  215  A    between atoms: _513  and  _515
REMARK  216  A    between atoms: _515  and  _516
REMARK  217  A    between atoms: _515  and  _518
REMARK  218  A    between atoms: _518  and  _519
REMARK  219  A    between atoms: _520  and  _522
REMARK  220  A    between atoms: _522  and  _523
REMARK  221  A    between atoms: _526  and  _528
REMARK  222  A    between atoms: _528  and  _529
REMARK  223  A    between atoms: _528  and  _531
REMARK  224  A    between atoms: _531  and  _532
REMARK  225  A    between atoms: _532  and  _533
REMARK  226  A    between atoms: _538  and  _540
REMARK  227  A    between atoms: _540  and  _541
REMARK  228  A    between atoms: _540  and  _543
REMARK  229  A    between atoms: _543  and  _544
REMARK  230  A    between atoms: _544  and  _545
REMARK  231  A    between atoms: _545  and  _546
REMARK  232  A    between atoms: _556  and  _557
REMARK  233  A    between atoms: _562  and  _564
REMARK  234  A    between atoms: _564  and  _565
REMARK  235  A    between atoms: _567  and  _569
REMARK  236  A    between atoms: _569  and  _570
REMARK  237  A    between atoms: _569  and  _572
REMARK  238  A    between atoms: _575  and  _577
REMARK  239  A    between atoms: _577  and  _578
REMARK  240  A    between atoms: _577  and  _580
REMARK  241  A    between atoms: _580  and  _581
REMARK  242  A    between atoms: _586  and  _587
REMARK  243  A    between atoms: _589  and  _591
REMARK  244  A    between atoms: _591  and  _592
REMARK  245  A    between atoms: _591  and  _594
REMARK  246  A    between atoms: _594  and  _595
REMARK                            x       y       z     vdW  Elec       q    Type
REMARK                         _______ _______ _______ _____ _____    ______ ____
ROOT
ATOM      1  C   ARG A   3      18.205   2.975  58.543  0.00  0.00    +0.241 C 
ATOM      2  O   ARG A   3      17.397   2.049  58.568  0.00  0.00    -0.273 OA
ATOM      3  N   ASP A   4      19.490   2.811  58.234  0.00  0.00    -0.297 N 
ATOM      4  H   ASP A   4      20.128   3.629  58.302  0.00  0.00    +0.150 HD
ENDROOT
BRANCH   1   5
ATOM      5  CA  ARG A   3      17.759   4.404  58.828  0.00  0.00    +0.149 C 
BRANCH   5   7
ATOM      6  C   LEU A   2      17.527   5.801  56.853  0.00  0.00    +0.241 C 
ATOM      7  N   ARG A   3      17.027   4.868  57.657  0.00  0.00    -0.297 N 
ATOM      8  H   ARG A   3      16.094   4.461  57.446  0.00  0.00    +0.150 HD
ATOM      9  O   LEU A   2      18.589   6.382  57.080  0.00  0.00    -0.273 OA
BRANCH   6  10
ATOM     10  CA  LEU A   2      16.715   6.135  55.601  0.00  0.00    +0.149 C 
BRANCH  10  13
ATOM     11  C   LYS A   1      16.969   3.869  54.676  0.00  0.00    +0.238 C 
ATOM     12  O   LYS A   1      18.109   3.761  55.124  0.00  0.00    -0.274 OA
ATOM     13  N   LEU A   2      16.196   4.929  54.921  0.00  0.00    -0.297 N 
ATOM     14  H   LEU A   2      15.199   4.906  54.625  0.00  0.00    +0.150 HD
BRANCH  11  15
ATOM     15  CA  LYS A   1      16.381   2.752  53.807  0.00  0.00    +0.145 C 
BRANCH  15  16
ATOM     16  N   LYS A   1      17.484   1.941  53.278  0.00  0.00    -0.238 NA
ATOM     17  H   LYS A   1      18.369   1.883  53.822  0.00  0.00    +0.142 HD
ENDBRANCH  15  16
BRANCH  15  18
ATOM     18  CB  LYS A   1      15.394   1.875  54.602  0.00  0.00    +0.026 C 
BRANCH  18  19
ATOM     19  CG  LYS A   1      16.003   1.200  55.820  0.00  0.00    -0.000 C 
BRANCH  19  20
ATOM     20  CD  LYS A   1      15.116   0.126  56.432  0.00  0.00    -0.024 C 
BRANCH  20  21
ATOM     21  CE  LYS A   1      15.840  -0.579  57.575  0.00  0.00    -0.086 C 
BRANCH  21  22
ATOM     22  NZ  LYS A   1      15.111  -1.755  58.130  0.00  0.00    +0.380 N 
ATOM     23  HZ1 LYS A   1      15.669  -2.176  58.900  0.00  0.00    -0.089 HD
ATOM     24  HZ2 LYS A   1      14.188  -1.447  58.497  0.00  0.00    -0.089 HD
ATOM     25  HZ3 LYS A   1      14.969  -2.460  57.378  0.00  0.00    -0.089 HD
ENDBRANCH  21  22
ENDBRANCH  20  21
ENDBRANCH  19  20
ENDBRANCH  18  19
ENDBRANCH  15  18
ENDBRANCH  11  15
ENDBRANCH  10  13
BRANCH  10  26
ATOM     26  CB  LEU A   2      15.588   7.110  55.978  0.00  0.00    +0.029 C 
BRANCH  26  27
ATOM     27  CG  LEU A   2      15.891   8.617  55.941  0.00  0.00    +0.002 C 
ATOM     28  CD2 LEU A   2      14.938   9.352  56.875  0.00  0.00    +0.000 C 
ATOM     29  CD1 LEU A   2      17.328   8.995  56.284  0.00  0.00    +0.000 C 
ENDBRANCH  26  27
ENDBRANCH  10  26
ENDBRANCH   6  10
ENDBRANCH   5   7
BRANCH   5  30
ATOM     30  CB  ARG A   3      16.892   4.493  60.100  0.00  0.00    +0.033 C 
BRANCH  30  31
ATOM     31  CG  ARG A   3      16.067   5.780  60.244  0.00  0.00    +0.045 C 
BRANCH  31  32
ATOM     32  CD  ARG A   3      16.927   7.036  60.378  0.00  0.00    +0.174 C 
BRANCH  32  33
ATOM     33  NE  ARG A   3      16.148   8.283  60.290  0.00  0.00    -0.265 N 
ATOM     34  CZ  ARG A   3      16.668   9.515  60.291  0.00  0.00    +0.342 C 
ATOM     35  NH2 ARG A   3      17.985   9.701  60.383  0.00  0.00    -0.292 N 
ATOM     36 HH21 ARG A   3      18.622   8.882  60.455  0.00  0.00    +0.255 HD
ATOM     37 HH22 ARG A   3      18.375  10.665  60.383  0.00  0.00    +0.255 HD
ATOM     38  NH1 ARG A   3      15.866  10.575  60.204  0.00  0.00    -0.292 N 
ATOM     39 HH11 ARG A   3      16.269  11.534  60.205  0.00  0.00    +0.255 HD
ATOM     40 HH12 ARG A   3      14.837  10.444  60.135  0.00  0.00    +0.255 HD
ATOM     41  HE  ARG A   3      15.114   8.199  60.222  0.00  0.00    +0.259 HD
ENDBRANCH  32  33
ENDBRANCH  31  32
ENDBRANCH  30  31
ENDBRANCH   5  30
ENDBRANCH   1   5
BRANCH   3  42
ATOM     42  CA  ASP A   4      20.041   1.525  57.802  0.00  0.00    +0.160 C 
BRANCH  42  43
ATOM     43  C   ASP A   4      21.552   1.569  58.007  0.00  0.00    +0.241 C 
ATOM     44  O   ASP A   4      22.016   2.175  58.969  0.00  0.00    -0.273 OA
ATOM     45  N   LYS A   5      22.317   0.949  57.108  0.00  0.00    -0.297 N 
ATOM     46  H   LYS A   5      21.860   0.480  56.300  0.00  0.00    +0.150 HD
BRANCH  45  47
ATOM     47  CA  LYS A   5      23.769   0.905  57.216  0.00  0.00    +0.149 C 
BRANCH  47  48
ATOM     48  C   LYS A   5      24.403   0.728  55.833  0.00  0.00    +0.241 C 
ATOM     49  N   ILE A   6      25.721   0.911  55.774  0.00  0.00    -0.297 N 
ATOM     50  H   ILE A   6      26.229   1.179  56.641  0.00  0.00    +0.150 HD
ATOM     51  O   LYS A   5      23.711   0.422  54.853  0.00  0.00    -0.273 OA
BRANCH  49  52
ATOM     52  CA  ILE A   6      26.486   0.748  54.524  0.00  0.00    +0.149 C 
BRANCH  52  53
ATOM     53  C   ILE A   6      26.419  -0.704  54.069  0.00  0.00    +0.241 C 
ATOM     54  O   ILE A   6      26.616  -1.614  54.860  0.00  0.00    -0.273 OA
ATOM     55  N   GLN A   7      26.132  -0.906  52.790  0.00  0.00    -0.298 N 
ATOM     56  H   GLN A   7      26.034  -0.082  52.163  0.00  0.00    +0.150 HD
BRANCH  55  57
ATOM     57  CA  GLN A   7      25.948  -2.239  52.229  0.00  0.00    +0.137 C 
BRANCH  57  58
ATOM     58  C   GLN A   7      27.264  -2.806  51.715  0.00  0.00    +0.227 C 
ATOM     59  O   GLN A   7      28.112  -2.075  51.254  0.00  0.00    -0.286 OA
ENDBRANCH  57  58
BRANCH  57  60
ATOM     60  CB  GLN A   7      24.934  -2.168  51.091  0.00  0.00    +0.037 C 
BRANCH  60  61
ATOM     61  CG  GLN A   7      23.590  -1.643  51.553  0.00  0.00    +0.087 C 
BRANCH  61  62
ATOM     62  CD  GLN A   7      22.989  -2.547  52.604  0.00  0.00    +0.219 C 
ATOM     63  NE2 GLN A   7      22.652  -1.998  53.762  0.00  0.00    -0.329 N 
ATOM     64 HE21 GLN A   7      22.242  -2.585  54.516  0.00  0.00    +0.145 HD
ATOM     65 HE22 GLN A   7      22.797  -0.980  53.917  0.00  0.00    +0.145 HD
ATOM     66  OE1 GLN A   7      22.840  -3.735  52.370  0.00  0.00    -0.275 OA
ENDBRANCH  61  62
ENDBRANCH  60  61
ENDBRANCH  57  60
ENDBRANCH  55  57
ENDBRANCH  52  53
BRANCH  52  67
ATOM     67  CB  ILE A   6      27.965   1.164  54.716  0.00  0.00    +0.027 C 
ATOM     68  CG2 ILE A   6      28.818   0.787  53.504  0.00  0.00    +0.002 C 
BRANCH  67  69
ATOM     69  CG1 ILE A   6      28.066   2.663  55.029  0.00  0.00    +0.002 C 
ATOM     70  CD1 ILE A   6      27.243   3.560  54.129  0.00  0.00    +0.000 C 
ENDBRANCH  67  69
ENDBRANCH  52  67
ENDBRANCH  49  52
ENDBRANCH  47  48
BRANCH  47  71
ATOM     71  CB  LYS A   5      24.191  -0.246  58.125  0.00  0.00    +0.029 C 
BRANCH  71  72
ATOM     72  CG  LYS A   5      24.166  -1.609  57.441  0.00  0.00    +0.000 C 
BRANCH  72  73
ATOM     73  CD  LYS A   5      24.476  -2.740  58.405  0.00  0.00    -0.024 C 
BRANCH  73  74
ATOM     74  CE  LYS A   5      23.243  -3.140  59.199  0.00  0.00    -0.086 C 
BRANCH  74  75
ATOM     75  NZ  LYS A   5      23.535  -4.240  60.164  0.00  0.00    +0.380 N 
ATOM     76  HZ1 LYS A   5      24.267  -3.927  60.833  0.00  0.00    -0.089 HD
ATOM     77  HZ2 LYS A   5      22.668  -4.482  60.685  0.00  0.00    -0.089 HD
ATOM     78  HZ3 LYS A   5      23.873  -5.075  59.644  0.00  0.00    -0.089 HD
ENDBRANCH  74  75
ENDBRANCH  73  74
ENDBRANCH  72  73
ENDBRANCH  71  72
ENDBRANCH  47  71
ENDBRANCH  45  47
ENDBRANCH  42  43
BRANCH  42  79
ATOM     79  CB  ASP A   4      19.684   1.271  56.327  0.00  0.00    +0.143 C 
BRANCH  79  80
ATOM     80  CG  ASP A   4      19.825  -0.191  55.914  0.00  0.00    +0.367 C 
ATOM     81  OD2 ASP A   4      19.439  -1.078  56.698  0.00  0.00    -0.246 OA
ATOM     82  OD1 ASP A   4      20.315  -0.449  54.791  0.00  0.00    -0.246 OA
ENDBRANCH  79  80
ENDBRANCH  42  79
ENDBRANCH   3  42
TORSDOF 37
REMARK  Name = ../refined-set-2016/4crb/4crb_pocket.pdb
REMARK  246 active torsions:
REMARK  status: ('A' for Active; 'I' for Inactive)
REMARK    1  A    between atoms: _1  and  _5
REMARK    2  A    between atoms: _5  and  _6
REMARK    3  A    between atoms: _5  and  _8
REMARK    4  A    between atoms: _8  and  _9
REMARK    5  A    between atoms: _12  and  _14
REMARK    6  A    between atoms: _14  and  _15
REMARK    7  A    between atoms: _14  and  _17
REMARK    8  A    between atoms: _20  and  _22
REMARK    9  A    between atoms: _22  and  _23
REMARK   10  A    between atoms: _22  and  _25
REMARK   11  A    between atoms: _25  and  _26
REMARK   12  A    between atoms: _29  and  _31
REMARK   13  A    between atoms: _31  and  _32
REMARK   14  A    between atoms: _31  and  _34
REMARK   15  A    between atoms: _34  and  _35
REMARK   16  A    between atoms: _38  and  _40
REMARK   17  A    between atoms: _40  and  _41
REMARK   18  A    between atoms: _40  and  _43
REMARK   19  A    between atoms: _43  and  _44
REMARK   20  A    between atoms: _47  and  _49
REMARK   21  A    between atoms: _49  and  _50
REMARK   22  A    between atoms: _49  and  _52
REMARK   23  A    between atoms: _52  and  _53
REMARK   24  A    between atoms: _56  and  _58
REMARK   25  A    between atoms: _58  and  _59
REMARK   26  A    between atoms: _58  and  _61
REMARK   27  A    between atoms: _61  and  _62
REMARK   28  A    between atoms: _62  and  _63
REMARK   29  A    between atoms: _68  and  _70
REMARK   30  A    between atoms: _70  and  _71
REMARK   31  A    between atoms: _70  and  _73
REMARK   32  A    between atoms: _73  and  _74
REMARK   33  A    between atoms: _74  and  _75
REMARK   34  A    between atoms: _75  and  _76
REMARK   35  A    between atoms: _85  and  _87
REMARK   36  A    between atoms: _87  and  _88
REMARK   37  A    between atoms: _87  and  _90
REMARK   38  A    between atoms: _90  and  _91
REMARK   39  A    between atoms: _96  and  _98
REMARK   40  A    between atoms: _98  and  _99
REMARK   41  A    between atoms: _98  and  _101
REMARK   42  A    between atoms: _101  and  _102
REMARK   43  A    between atoms: _105  and  _107
REMARK   44  A    between atoms: _107  and  _108
REMARK   45  A    between atoms: _107  and  _110
REMARK   46  A    between atoms: _110  and  _111
REMARK   47  A    between atoms: _111  and  _146
REMARK   48  A    between atoms: _112  and  _114
REMARK   49  A    between atoms: _114  and  _115
REMARK   50  A    between atoms: _117  and  _119
REMARK   51  A    between atoms: _119  and  _120
REMARK   52  A    between atoms: _123  and  _125
REMARK   53  A    between atoms: _125  and  _126
REMARK   54  A    between atoms: _129  and  _131
REMARK   55  A    between atoms: _131  and  _132
REMARK   56  A    between atoms: _131  and  _134
REMARK   57  A    between atoms: _134  and  _135
REMARK   58  A    between atoms: _140  and  _142
REMARK   59  A    between atoms: _142  and  _143
REMARK   60  A    between atoms: _142  and  _145
REMARK   61  A    between atoms: _145  and  _146
REMARK   62  A    between atoms: _147  and  _149
REMARK   63  A    between atoms: _149  and  _150
REMARK   64  A    between atoms: _149  and  _152
REMARK   65  A    between atoms: _152  and  _153
REMARK   66  A    between atoms: _159  and  _161
REMARK   67  A    between atoms: _161  and  _162
REMARK   68  A    between atoms: _161  and  _164
REMARK   69  A    between atoms: _164  and  _165
REMARK   70  A    between atoms: _170  and  _171
REMARK   71  A    between atoms: _173  and  _175
REMARK   72  A    between atoms: _175  and  _176
REMARK   73  A    between atoms: _178  and  _180
REMARK   74  A    between atoms: _180  and  _181
REMARK   75  A    between atoms: _180  and  _183
REMARK   76  A    between atoms: _186  and  _188
REMARK   77  A    between atoms: _188  and  _189
REMARK   78  A    between atoms: _192  and  _194
REMARK   79  A    between atoms: _194  and  _195
REMARK   80  A    between atoms: _194  and  _197
REMARK   81  A    between atoms: _197  and  _198
REMARK   82  A    between atoms: _201  and  _203
REMARK   83  A    between atoms: _203  and  _204
REMARK   84  A    between atoms: _203  and  _206
REMARK   85  A    between atoms: _209  and  _211
REMARK   86  A    between atoms: _211  and  _212
REMARK   87  A    between atoms: _211  and  _214
REMARK   88  A    between atoms: _214  and  _215
REMARK   89  A    between atoms: _225  and  _227
REMARK   90  A    between atoms: _227  and  _228
REMARK   91  A    between atoms: _230  and  _232
REMARK   92  A    between atoms: _232  and  _233
REMARK   93  A    between atoms: _232  and  _235
REMARK   94  A    between atoms: _235  and  _236
REMARK   95  A    between atoms: _241  and  _242
REMARK   96  A    between atoms: _244  and  _246
REMARK   97  A    between atoms: _246  and  _247
REMARK   98  A    between atoms: _246  and  _249
REMARK   99  A    between atoms: _249  and  _250
REMARK  100  A    between atoms: _250  and  _251
REMARK  101  A    between atoms: _251  and  _252
REMARK  102  A    between atoms: _252  and  _253
REMARK  103  A    between atoms: _257  and  _259
REMARK  104  A    between atoms: _259  and  _260
REMARK  105  A    between atoms: _259  and  _262
REMARK  106  A    between atoms: _262  and  _263
REMARK  107  A    between atoms: _266  and  _268
REMARK  108  A    between atoms: _268  and  _269
REMARK  109  A    between atoms: _268  and  _271
REMARK  110  A    between atoms: _271  and  _272
REMARK  111  A    between atoms: _272  and  _273
REMARK  112  A    between atoms: _273  and  _274
REMARK  113  A    between atoms: _283  and  _285
REMARK  114  A    between atoms: _285  and  _286
REMARK  115  A    between atoms: _285  and  _288
REMARK  116  A    between atoms: _288  and  _289
REMARK  117  A    between atoms: _292  and  _294
REMARK  118  A    between atoms: _294  and  _295
REMARK  119  A    between atoms: _294  and  _297
REMARK  120  A    between atoms: _297  and  _298
REMARK  121  A    between atoms: _298  and  _299
REMARK  122  A    between atoms: _299  and  _300
REMARK  123  A    between atoms: _300  and  _301
REMARK  124  A    between atoms: _305  and  _307
REMARK  125  A    between atoms: _307  and  _308
REMARK  126  A    between atoms: _307  and  _310
REMARK  127  A    between atoms: _310  and  _311
REMARK  128  A    between atoms: _314  and  _316
REMARK  129  A    between atoms: _316  and  _317
REMARK  130  A    between atoms: _316  and  _319
REMARK  131  A    between atoms: _319  and  _320
REMARK  132  A    between atoms: _320  and  _321
REMARK  133  A    between atoms: _326  and  _328
REMARK  134  A    between atoms: _328  and  _329
REMARK  135  A    between atoms: _328  and  _331
REMARK  136  A    between atoms: _331  and  _332
REMARK  137  A    between atoms: _335  and  _337
REMARK  138  A    between atoms: _337  and  _338
REMARK  139  A    between atoms: _337  and  _340
REMARK  140  A    between atoms: _340  and  _341
REMARK  141  A    between atoms: _346  and  _347
REMARK  142  A    between atoms: _349  and  _351
REMARK  143  A    between atoms: _351  and  _352
REMARK  144  A    between atoms: _351  and  _354
REMARK  145  A    between atoms: _354  and  _355
REMARK  146  A    between atoms: _358  and  _360
REMARK  147  A    between atoms: _360  and  _361
REMARK  148  A    between atoms: _360  and  _363
REMARK  149  A    between atoms: _365  and  _367
REMARK  150  A    between atoms: _367  and  _368
REMARK  151  A    between atoms: _371  and  _373
REMARK  152  A    between atoms: _373  and  _374
REMARK  153  A    between atoms: _373  and  _376
REMARK  154  A    between atoms: _376  and  _377
REMARK  155  A    between atoms: _377  and  _378
REMARK  156  A    between atoms: _378  and  _379
REMARK  157  A    between atoms: _379  and  _380
REMARK  158  A    between atoms: _384  and  _386
REMARK  159  A    between atoms: _386  and  _387
REMARK  160  A    between atoms: _386  and  _389
REMARK  161  A    between atoms: _389  and  _390
REMARK  162  A    between atoms: _393  and  _395
REMARK  163  A    between atoms: _395  and  _396
REMARK  164  A    between atoms: _399  and  _401
REMARK  165  A    between atoms: _401  and  _402
REMARK  166  A    between atoms: _401  and  _404
REMARK  167  A    between atoms: _404  and  _405
REMARK  168  A    between atoms: _405  and  _519
REMARK  169  A    between atoms: _406  and  _408
REMARK  170  A    between atoms: _408  and  _409
REMARK  171  A    between atoms: _408  and  _411
REMARK  172  A    between atoms: _411  and  _412
REMARK  173  A    between atoms: _412  and  _413
REMARK  174  A    between atoms: _413  and  _414
REMARK  175  A    between atoms: _414  and  _415
REMARK  176  A    between atoms: _419  and  _421
REMARK  177  A    between atoms: _421  and  _422
REMARK  178  A    between atoms: _424  and  _426
REMARK  179  A    between atoms: _426  and  _427
REMARK  180  A    between atoms: _426  and  _429
REMARK  181  A    between atoms: _429  and  _430
REMARK  182  A    between atoms: _433  and  _435
REMARK  183  A    between atoms: _435  and  _436
REMARK  184  A    between atoms: _435  and  _438
REMARK  185  A    between atoms: _438  and  _439
REMARK  186  A    between atoms: _441  and  _443
REMARK  187  A    between atoms: _443  and  _444
REMARK  188  A    between atoms: _446  and  _448
REMARK  189  A    between atoms: _448  and  _449
REMARK  190  A    between atoms: _451  and  _453
REMARK  191  A    between atoms: _453  and  _454
REMARK  192  A    between atoms: _453  and  _456
REMARK  193  A    between atoms: _456  and  _457
REMARK  194  A    between atoms: _460  and  _462
REMARK  195  A    between atoms: _462  and  _463
REMARK  196  A    between atoms: _462  and  _465
REMARK  197  A    between atoms: _465  and  _466
REMARK  198  A    between atoms: _469  and  _471
REMARK  199  A    between atoms: _471  and  _472
REMARK  200  A    between atoms: _471  and  _474
REMARK  201  A    between atoms: _474  and  _475
REMARK  202  A    between atoms: _477  and  _479
REMARK  203  A    between atoms: _479  and  _480
REMARK  204  A    between atoms: _479  and  _482
REMARK  205  A    between atoms: _482  and  _483
REMARK  206  A    between atoms: _493  and  _495
REMARK  207  A    between atoms: _495  and  _496
REMARK  208  A    between atoms: _498  and  _500
REMARK  209  A    between atoms: _500  and  _501
REMARK  210  A    between atoms: _500  and  _503
REMARK  211  A    between atoms: _503  and  _504
REMARK  212  A    between atoms: _504  and  _505
REMARK  213  A    between atoms: _508  and  _510
REMARK  214  A    between atoms: _510  and  _511
REMARK  215  A    between atoms: _513  and  _515
REMARK  216  A    between atoms: _515  and  _516
REMARK  217  A    between atoms: _515  and  _518
REMARK  218  A    between atoms: _518  and  _519
REMARK  219  A    between atoms: _520  and  _522
REMARK  220  A    between atoms: _522  and  _523
REMARK  221  A    between atoms: _526  and  _528
REMARK  222  A    between atoms: _528  and  _529
REMARK  223  A    between atoms: _528  and  _531
REMARK  224  A    between atoms: _531  and  _532
REMARK  225  A    between atoms: _532  and  _533
REMARK  226  A    between atoms: _538  and  _540
REMARK  227  A    between atoms: _540  and  _541
REMARK  228  A    between atoms: _540  and  _543
REMARK  229  A    between atoms: _543  and  _544
REMARK  230  A    between atoms: _544  and  _545
REMARK  231  A    between atoms: _545  and  _546
REMARK  232  A    between atoms: _556  and  _557
REMARK  233  A    between atoms: _562  and  _564
REMARK  234  A    between atoms: _564  and  _565
REMARK  235  A    between atoms: _567  and  _569
REMARK  236  A    between atoms: _569  and  _570
REMARK  237  A    between atoms: _569  and  _572
REMARK  238  A    between atoms: _575  and  _577
REMARK  239  A    between atoms: _577  and  _578
REMARK  240  A    between atoms: _577  and  _580
REMARK  241  A    between atoms: _580  and  _581
REMARK  242  A    between atoms: _586  and  _587
REMARK  243  A    between atoms: _589  and  _591
REMARK  244  A    between atoms: _591  and  _592
REMARK  245  A    between atoms: _591  and  _594
REMARK  246  A    between atoms: _594  and  _595
REMARK                            x       y       z     vdW  Elec       q    Type
REMARK                         _______ _______ _______ _____ _____    ______ ____
ROOT
ATOM      1  CA  ILE A   1      15.806   6.046  37.692  0.00  0.00    +0.133 C 
ENDROOT
BRANCH   1   2
ATOM      2  N   ILE A   1      16.683   4.956  37.267  0.00  0.00    -0.239 NA
ATOM      3  H   ILE A   1      17.521   5.169  36.688  0.00  0.00    +0.142 HD
ENDBRANCH   1   2
BRANCH   1   4
ATOM      4  CB  ILE A   1      16.327   6.716  38.977  0.00  0.00    +0.023 C 
ATOM      5  CG2 ILE A   1      15.369   7.804  39.429  0.00  0.00    +0.002 C 
BRANCH   4   6
ATOM      6  CG1 ILE A   1      16.467   5.691  40.102  0.00  0.00    +0.002 C 
ATOM      7  CD1 ILE A   1      17.087   6.242  41.368  0.00  0.00    +0.000 C 
ENDBRANCH   4   6
ENDBRANCH   1   4
BRANCH   1   8
ATOM      8  C   ILE A   1      15.657   7.094  36.590  0.00  0.00    +0.224 C 
ATOM      9  O   ILE A   1      16.645   7.534  36.007  0.00  0.00    -0.287 OA
ENDBRANCH   1   8
TORSDOF 4
REMARK  Name = ../refined-set-2016/4crb/4crb_pocket.pdb
REMARK  246 active torsions:
REMARK  status: ('A' for Active; 'I' for Inactive)
REMARK    1  A    between atoms: _1  and  _5
REMARK    2  A    between atoms: _5  and  _6
REMARK    3  A    between atoms: _5  and  _8
REMARK    4  A    between atoms: _8  and  _9
REMARK    5  A    between atoms: _12  and  _14
REMARK    6  A    between atoms: _14  and  _15
REMARK    7  A    between atoms: _14  and  _17
REMARK    8  A    between atoms: _20  and  _22
REMARK    9  A    between atoms: _22  and  _23
REMARK   10  A    between atoms: _22  and  _25
REMARK   11  A    between atoms: _25  and  _26
REMARK   12  A    between atoms: _29  and  _31
REMARK   13  A    between atoms: _31  and  _32
REMARK   14  A    between atoms: _31  and  _34
REMARK   15  A    between atoms: _34  and  _35
REMARK   16  A    between atoms: _38  and  _40
REMARK   17  A    between atoms: _40  and  _41
REMARK   18  A    between atoms: _40  and  _43
REMARK   19  A    between atoms: _43  and  _44
REMARK   20  A    between atoms: _47  and  _49
REMARK   21  A    between atoms: _49  and  _50
REMARK   22  A    between atoms: _49  and  _52
REMARK   23  A    between atoms: _52  and  _53
REMARK   24  A    between atoms: _56  and  _58
REMARK   25  A    between atoms: _58  and  _59
REMARK   26  A    between atoms: _58  and  _61
REMARK   27  A    between atoms: _61  and  _62
REMARK   28  A    between atoms: _62  and  _63
REMARK   29  A    between atoms: _68  and  _70
REMARK   30  A    between atoms: _70  and  _71
REMARK   31  A    between atoms: _70  and  _73
REMARK   32  A    between atoms: _73  and  _74
REMARK   33  A    between atoms: _74  and  _75
REMARK   34  A    between atoms: _75  and  _76
REMARK   35  A    between atoms: _85  and  _87
REMARK   36  A    between atoms: _87  and  _88
REMARK   37  A    between atoms: _87  and  _90
REMARK   38  A    between atoms: _90  and  _91
REMARK   39  A    between atoms: _96  and  _98
REMARK   40  A    between atoms: _98  and  _99
REMARK   41  A    between atoms: _98  and  _101
REMARK   42  A    between atoms: _101  and  _102
REMARK   43  A    between atoms: _105  and  _107
REMARK   44  A    between atoms: _107  and  _108
REMARK   45  A    between atoms: _107  and  _110
REMARK   46  A    between atoms: _110  and  _111
REMARK   47  A    between atoms: _111  and  _146
REMARK   48  A    between atoms: _112  and  _114
REMARK   49  A    between atoms: _114  and  _115
REMARK   50  A    between atoms: _117  and  _119
REMARK   51  A    between atoms: _119  and  _120
REMARK   52  A    between atoms: _123  and  _125
REMARK   53  A    between atoms: _125  and  _126
REMARK   54  A    between atoms: _129  and  _131
REMARK   55  A    between atoms: _131  and  _132
REMARK   56  A    between atoms: _131  and  _134
REMARK   57  A    between atoms: _134  and  _135
REMARK   58  A    between atoms: _140  and  _142
REMARK   59  A    between atoms: _142  and  _143
REMARK   60  A    between atoms: _142  and  _145
REMARK   61  A    between atoms: _145  and  _146
REMARK   62  A    between atoms: _147  and  _149
REMARK   63  A    between atoms: _149  and  _150
REMARK   64  A    between atoms: _149  and  _152
REMARK   65  A    between atoms: _152  and  _153
REMARK   66  A    between atoms: _159  and  _161
REMARK   67  A    between atoms: _161  and  _162
REMARK   68  A    between atoms: _161  and  _164
REMARK   69  A    between atoms: _164  and  _165
REMARK   70  A    between atoms: _170  and  _171
REMARK   71  A    between atoms: _173  and  _175
REMARK   72  A    between atoms: _175  and  _176
REMARK   73  A    between atoms: _178  and  _180
REMARK   74  A    between atoms: _180  and  _181
REMARK   75  A    between atoms: _180  and  _183
REMARK   76  A    between atoms: _186  and  _188
REMARK   77  A    between atoms: _188  and  _189
REMARK   78  A    between atoms: _192  and  _194
REMARK   79  A    between atoms: _194  and  _195
REMARK   80  A    between atoms: _194  and  _197
REMARK   81  A    between atoms: _197  and  _198
REMARK   82  A    between atoms: _201  and  _203
REMARK   83  A    between atoms: _203  and  _204
REMARK   84  A    between atoms: _203  and  _206
REMARK   85  A    between atoms: _209  and  _211
REMARK   86  A    between atoms: _211  and  _212
REMARK   87  A    between atoms: _211  and  _214
REMARK   88  A    between atoms: _214  and  _215
REMARK   89  A    between atoms: _225  and  _227
REMARK   90  A    between atoms: _227  and  _228
REMARK   91  A    between atoms: _230  and  _232
REMARK   92  A    between atoms: _232  and  _233
REMARK   93  A    between atoms: _232  and  _235
REMARK   94  A    between atoms: _235  and  _236
REMARK   95  A    between atoms: _241  and  _242
REMARK   96  A    between atoms: _244  and  _246
REMARK   97  A    between atoms: _246  and  _247
REMARK   98  A    between atoms: _246  and  _249
REMARK   99  A    between atoms: _249  and  _250
REMARK  100  A    between atoms: _250  and  _251
REMARK  101  A    between atoms: _251  and  _252
REMARK  102  A    between atoms: _252  and  _253
REMARK  103  A    between atoms: _257  and  _259
REMARK  104  A    between atoms: _259  and  _260
REMARK  105  A    between atoms: _259  and  _262
REMARK  106  A    between atoms: _262  and  _263
REMARK  107  A    between atoms: _266  and  _268
REMARK  108  A    between atoms: _268  and  _269
REMARK  109  A    between atoms: _268  and  _271
REMARK  110  A    between atoms: _271  and  _272
REMARK  111  A    between atoms: _272  and  _273
REMARK  112  A    between atoms: _273  and  _274
REMARK  113  A    between atoms: _283  and  _285
REMARK  114  A    between atoms: _285  and  _286
REMARK  115  A    between atoms: _285  and  _288
REMARK  116  A    between atoms: _288  and  _289
REMARK  117  A    between atoms: _292  and  _294
REMARK  118  A    between atoms: _294  and  _295
REMARK  119  A    between atoms: _294  and  _297
REMARK  120  A    between atoms: _297  and  _298
REMARK  121  A    between atoms: _298  and  _299
REMARK  122  A    between atoms: _299  and  _300
REMARK  123  A    between atoms: _300  and  _301
REMARK  124  A    between atoms: _305  and  _307
REMARK  125  A    between atoms: _307  and  _308
REMARK  126  A    between atoms: _307  and  _310
REMARK  127  A    between atoms: _310  and  _311
REMARK  128  A    between atoms: _314  and  _316
REMARK  129  A    between atoms: _316  and  _317
REMARK  130  A    between atoms: _316  and  _319
REMARK  131  A    between atoms: _319  and  _320
REMARK  132  A    between atoms: _320  and  _321
REMARK  133  A    between atoms: _326  and  _328
REMARK  134  A    between atoms: _328  and  _329
REMARK  135  A    between atoms: _328  and  _331
REMARK  136  A    between atoms: _331  and  _332
REMARK  137  A    between atoms: _335  and  _337
REMARK  138  A    between atoms: _337  and  _338
REMARK  139  A    between atoms: _337  and  _340
REMARK  140  A    between atoms: _340  and  _341
REMARK  141  A    between atoms: _346  and  _347
REMARK  142  A    between atoms: _349  and  _351
REMARK  143  A    between atoms: _351  and  _352
REMARK  144  A    between atoms: _351  and  _354
REMARK  145  A    between atoms: _354  and  _355
REMARK  146  A    between atoms: _358  and  _360
REMARK  147  A    between atoms: _360  and  _361
REMARK  148  A    between atoms: _360  and  _363
REMARK  149  A    between atoms: _365  and  _367
REMARK  150  A    between atoms: _367  and  _368
REMARK  151  A    between atoms: _371  and  _373
REMARK  152  A    between atoms: _373  and  _374
REMARK  153  A    between atoms: _373  and  _376
REMARK  154  A    between atoms: _376  and  _377
REMARK  155  A    between atoms: _377  and  _378
REMARK  156  A    between atoms: _378  and  _379
REMARK  157  A    between atoms: _379  and  _380
REMARK  158  A    between atoms: _384  and  _386
REMARK  159  A    between atoms: _386  and  _387
REMARK  160  A    between atoms: _386  and  _389
REMARK  161  A    between atoms: _389  and  _390
REMARK  162  A    between atoms: _393  and  _395
REMARK  163  A    between atoms: _395  and  _396
REMARK  164  A    between atoms: _399  and  _401
REMARK  165  A    between atoms: _401  and  _402
REMARK  166  A    between atoms: _401  and  _404
REMARK  167  A    between atoms: _404  and  _405
REMARK  168  A    between atoms: _405  and  _519
REMARK  169  A    between atoms: _406  and  _408
REMARK  170  A    between atoms: _408  and  _409
REMARK  171  A    between atoms: _408  and  _411
REMARK  172  A    between atoms: _411  and  _412
REMARK  173  A    between atoms: _412  and  _413
REMARK  174  A    between atoms: _413  and  _414
REMARK  175  A    between atoms: _414  and  _415
REMARK  176  A    between atoms: _419  and  _421
REMARK  177  A    between atoms: _421  and  _422
REMARK  178  A    between atoms: _424  and  _426
REMARK  179  A    between atoms: _426  and  _427
REMARK  180  A    between atoms: _426  and  _429
REMARK  181  A    between atoms: _429  and  _430
REMARK  182  A    between atoms: _433  and  _435
REMARK  183  A    between atoms: _435  and  _436
REMARK  184  A    between atoms: _435  and  _438
REMARK  185  A    between atoms: _438  and  _439
REMARK  186  A    between atoms: _441  and  _443
REMARK  187  A    between atoms: _443  and  _444
REMARK  188  A    between atoms: _446  and  _448
REMARK  189  A    between atoms: _448  and  _449
REMARK  190  A    between atoms: _451  and  _453
REMARK  191  A    between atoms: _453  and  _454
REMARK  192  A    between atoms: _453  and  _456
REMARK  193  A    between atoms: _456  and  _457
REMARK  194  A    between atoms: _460  and  _462
REMARK  195  A    between atoms: _462  and  _463
REMARK  196  A    between atoms: _462  and  _465
REMARK  197  A    between atoms: _465  and  _466
REMARK  198  A    between atoms: _469  and  _471
REMARK  199  A    between atoms: _471  and  _472
REMARK  200  A    between atoms: _471  and  _474
REMARK  201  A    between atoms: _474  and  _475
REMARK  202  A    between atoms: _477  and  _479
REMARK  203  A    between atoms: _479  and  _480
REMARK  204  A    between atoms: _479  and  _482
REMARK  205  A    between atoms: _482  and  _483
REMARK  206  A    between atoms: _493  and  _495
REMARK  207  A    between atoms: _495  and  _496
REMARK  208  A    between atoms: _498  and  _500
REMARK  209  A    between atoms: _500  and  _501
REMARK  210  A    between atoms: _500  and  _503
REMARK  211  A    between atoms: _503  and  _504
REMARK  212  A    between atoms: _504  and  _505
REMARK  213  A    between atoms: _508  and  _510
REMARK  214  A    between atoms: _510  and  _511
REMARK  215  A    between atoms: _513  and  _515
REMARK  216  A    between atoms: _515  and  _516
REMARK  217  A    between atoms: _515  and  _518
REMARK  218  A    between atoms: _518  and  _519
REMARK  219  A    between atoms: _520  and  _522
REMARK  220  A    between atoms: _522  and  _523
REMARK  221  A    between atoms: _526  and  _528
REMARK  222  A    between atoms: _528  and  _529
REMARK  223  A    between atoms: _528  and  _531
REMARK  224  A    between atoms: _531  and  _532
REMARK  225  A    between atoms: _532  and  _533
REMARK  226  A    between atoms: _538  and  _540
REMARK  227  A    between atoms: _540  and  _541
REMARK  228  A    between atoms: _540  and  _543
REMARK  229  A    between atoms: _543  and  _544
REMARK  230  A    between atoms: _544  and  _545
REMARK  231  A    between atoms: _545  and  _546
REMARK  232  A    between atoms: _556  and  _557
REMARK  233  A    between atoms: _562  and  _564
REMARK  234  A    between atoms: _564  and  _565
REMARK  235  A    between atoms: _567  and  _569
REMARK  236  A    between atoms: _569  and  _570
REMARK  237  A    between atoms: _569  and  _572
REMARK  238  A    between atoms: _575  and  _577
REMARK  239  A    between atoms: _577  and  _578
REMARK  240  A    between atoms: _577  and  _580
REMARK  241  A    between atoms: _580  and  _581
REMARK  242  A    between atoms: _586  and  _587
REMARK  243  A    between atoms: _589  and  _591
REMARK  244  A    between atoms: _591  and  _592
REMARK  245  A    between atoms: _591  and  _594
REMARK  246  A    between atoms: _594  and  _595
REMARK                            x       y       z     vdW  Elec       q    Type
REMARK                         _______ _______ _______ _____ _____    ______ ____
ROOT
ATOM      1  CG  TYR A   1      12.967  19.602  46.527  0.00  0.00    -0.020 A 
ATOM      2  CD2 TYR A   1      13.200  19.142  47.809  0.00  0.00    -0.001 A 
ATOM      3  CE2 TYR A   1      13.551  17.831  48.047  0.00  0.00    +0.036 A 
ATOM      4  CZ  TYR A   1      13.677  16.954  46.996  0.00  0.00    +0.134 A 
ATOM      5  CE1 TYR A   1      13.447  17.380  45.701  0.00  0.00    +0.036 A 
ATOM      6  CD1 TYR A   1      13.097  18.702  45.474  0.00  0.00    -0.001 A 
ENDROOT
BRANCH   4   7
ATOM      7  OH  TYR A   1      14.020  15.654  47.268  0.00  0.00    -0.506 OA
ATOM      8  HH  TYR A   1      14.865  15.432  46.801  0.00  0.00    +0.292 HD
ENDBRANCH   4   7
BRANCH   1   9
ATOM      9  CB  TYR A   1      12.567  21.017  46.290  0.00  0.00    +0.051 C 
BRANCH   9  10
ATOM     10  CA  TYR A   1      11.091  21.275  46.641  0.00  0.00    +0.137 C 
BRANCH  10  11
ATOM     11  N   TYR A   1      10.206  20.659  45.636  0.00  0.00    -0.239 NA
ATOM     12  H   TYR A   1      10.149  21.092  44.692  0.00  0.00    +0.142 HD
ENDBRANCH  10  11
BRANCH  10  13
ATOM     13  C   TYR A   1      10.833  22.771  46.707  0.00  0.00    +0.224 C 
ATOM     14  O   TYR A   1      11.704  23.566  46.387  0.00  0.00    -0.287 OA
ENDBRANCH  10  13
ENDBRANCH   9  10
ENDBRANCH   1   9
TORSDOF 5
REMARK  Name = ../refined-set-2016/4crb/4crb_pocket.pdb
REMARK  246 active torsions:
REMARK  status: ('A' for Active; 'I' for Inactive)
REMARK    1  A    between atoms: _1  and  _5
REMARK    2  A    between atoms: _5  and  _6
REMARK    3  A    between atoms: _5  and  _8
REMARK    4  A    between atoms: _8  and  _9
REMARK    5  A    between atoms: _12  and  _14
REMARK    6  A    between atoms: _14  and  _15
REMARK    7  A    between atoms: _14  and  _17
REMARK    8  A    between atoms: _20  and  _22
REMARK    9  A    between atoms: _22  and  _23
REMARK   10  A    between atoms: _22  and  _25
REMARK   11  A    between atoms: _25  and  _26
REMARK   12  A    between atoms: _29  and  _31
REMARK   13  A    between atoms: _31  and  _32
REMARK   14  A    between atoms: _31  and  _34
REMARK   15  A    between atoms: _34  and  _35
REMARK   16  A    between atoms: _38  and  _40
REMARK   17  A    between atoms: _40  and  _41
REMARK   18  A    between atoms: _40  and  _43
REMARK   19  A    between atoms: _43  and  _44
REMARK   20  A    between atoms: _47  and  _49
REMARK   21  A    between atoms: _49  and  _50
REMARK   22  A    between atoms: _49  and  _52
REMARK   23  A    between atoms: _52  and  _53
REMARK   24  A    between atoms: _56  and  _58
REMARK   25  A    between atoms: _58  and  _59
REMARK   26  A    between atoms: _58  and  _61
REMARK   27  A    between atoms: _61  and  _62
REMARK   28  A    between atoms: _62  and  _63
REMARK   29  A    between atoms: _68  and  _70
REMARK   30  A    between atoms: _70  and  _71
REMARK   31  A    between atoms: _70  and  _73
REMARK   32  A    between atoms: _73  and  _74
REMARK   33  A    between atoms: _74  and  _75
REMARK   34  A    between atoms: _75  and  _76
REMARK   35  A    between atoms: _85  and  _87
REMARK   36  A    between atoms: _87  and  _88
REMARK   37  A    between atoms: _87  and  _90
REMARK   38  A    between atoms: _90  and  _91
REMARK   39  A    between atoms: _96  and  _98
REMARK   40  A    between atoms: _98  and  _99
REMARK   41  A    between atoms: _98  and  _101
REMARK   42  A    between atoms: _101  and  _102
REMARK   43  A    between atoms: _105  and  _107
REMARK   44  A    between atoms: _107  and  _108
REMARK   45  A    between atoms: _107  and  _110
REMARK   46  A    between atoms: _110  and  _111
REMARK   47  A    between atoms: _111  and  _146
REMARK   48  A    between atoms: _112  and  _114
REMARK   49  A    between atoms: _114  and  _115
REMARK   50  A    between atoms: _117  and  _119
REMARK   51  A    between atoms: _119  and  _120
REMARK   52  A    between atoms: _123  and  _125
REMARK   53  A    between atoms: _125  and  _126
REMARK   54  A    between atoms: _129  and  _131
REMARK   55  A    between atoms: _131  and  _132
REMARK   56  A    between atoms: _131  and  _134
REMARK   57  A    between atoms: _134  and  _135
REMARK   58  A    between atoms: _140  and  _142
REMARK   59  A    between atoms: _142  and  _143
REMARK   60  A    between atoms: _142  and  _145
REMARK   61  A    between atoms: _145  and  _146
REMARK   62  A    between atoms: _147  and  _149
REMARK   63  A    between atoms: _149  and  _150
REMARK   64  A    between atoms: _149  and  _152
REMARK   65  A    between atoms: _152  and  _153
REMARK   66  A    between atoms: _159  and  _161
REMARK   67  A    between atoms: _161  and  _162
REMARK   68  A    between atoms: _161  and  _164
REMARK   69  A    between atoms: _164  and  _165
REMARK   70  A    between atoms: _170  and  _171
REMARK   71  A    between atoms: _173  and  _175
REMARK   72  A    between atoms: _175  and  _176
REMARK   73  A    between atoms: _178  and  _180
REMARK   74  A    between atoms: _180  and  _181
REMARK   75  A    between atoms: _180  and  _183
REMARK   76  A    between atoms: _186  and  _188
REMARK   77  A    between atoms: _188  and  _189
REMARK   78  A    between atoms: _192  and  _194
REMARK   79  A    between atoms: _194  and  _195
REMARK   80  A    between atoms: _194  and  _197
REMARK   81  A    between atoms: _197  and  _198
REMARK   82  A    between atoms: _201  and  _203
REMARK   83  A    between atoms: _203  and  _204
REMARK   84  A    between atoms: _203  and  _206
REMARK   85  A    between atoms: _209  and  _211
REMARK   86  A    between atoms: _211  and  _212
REMARK   87  A    between atoms: _211  and  _214
REMARK   88  A    between atoms: _214  and  _215
REMARK   89  A    between atoms: _225  and  _227
REMARK   90  A    between atoms: _227  and  _228
REMARK   91  A    between atoms: _230  and  _232
REMARK   92  A    between atoms: _232  and  _233
REMARK   93  A    between atoms: _232  and  _235
REMARK   94  A    between atoms: _235  and  _236
REMARK   95  A    between atoms: _241  and  _242
REMARK   96  A    between atoms: _244  and  _246
REMARK   97  A    between atoms: _246  and  _247
REMARK   98  A    between atoms: _246  and  _249
REMARK   99  A    between atoms: _249  and  _250
REMARK  100  A    between atoms: _250  and  _251
REMARK  101  A    between atoms: _251  and  _252
REMARK  102  A    between atoms: _252  and  _253
REMARK  103  A    between atoms: _257  and  _259
REMARK  104  A    between atoms: _259  and  _260
REMARK  105  A    between atoms: _259  and  _262
REMARK  106  A    between atoms: _262  and  _263
REMARK  107  A    between atoms: _266  and  _268
REMARK  108  A    between atoms: _268  and  _269
REMARK  109  A    between atoms: _268  and  _271
REMARK  110  A    between atoms: _271  and  _272
REMARK  111  A    between atoms: _272  and  _273
REMARK  112  A    between atoms: _273  and  _274
REMARK  113  A    between atoms: _283  and  _285
REMARK  114  A    between atoms: _285  and  _286
REMARK  115  A    between atoms: _285  and  _288
REMARK  116  A    between atoms: _288  and  _289
REMARK  117  A    between atoms: _292  and  _294
REMARK  118  A    between atoms: _294  and  _295
REMARK  119  A    between atoms: _294  and  _297
REMARK  120  A    between atoms: _297  and  _298
REMARK  121  A    between atoms: _298  and  _299
REMARK  122  A    between atoms: _299  and  _300
REMARK  123  A    between atoms: _300  and  _301
REMARK  124  A    between atoms: _305  and  _307
REMARK  125  A    between atoms: _307  and  _308
REMARK  126  A    between atoms: _307  and  _310
REMARK  127  A    between atoms: _310  and  _311
REMARK  128  A    between atoms: _314  and  _316
REMARK  129  A    between atoms: _316  and  _317
REMARK  130  A    between atoms: _316  and  _319
REMARK  131  A    between atoms: _319  and  _320
REMARK  132  A    between atoms: _320  and  _321
REMARK  133  A    between atoms: _326  and  _328
REMARK  134  A    between atoms: _328  and  _329
REMARK  135  A    between atoms: _328  and  _331
REMARK  136  A    between atoms: _331  and  _332
REMARK  137  A    between atoms: _335  and  _337
REMARK  138  A    between atoms: _337  and  _338
REMARK  139  A    between atoms: _337  and  _340
REMARK  140  A    between atoms: _340  and  _341
REMARK  141  A    between atoms: _346  and  _347
REMARK  142  A    between atoms: _349  and  _351
REMARK  143  A    between atoms: _351  and  _352
REMARK  144  A    between atoms: _351  and  _354
REMARK  145  A    between atoms: _354  and  _355
REMARK  146  A    between atoms: _358  and  _360
REMARK  147  A    between atoms: _360  and  _361
REMARK  148  A    between atoms: _360  and  _363
REMARK  149  A    between atoms: _365  and  _367
REMARK  150  A    between atoms: _367  and  _368
REMARK  151  A    between atoms: _371  and  _373
REMARK  152  A    between atoms: _373  and  _374
REMARK  153  A    between atoms: _373  and  _376
REMARK  154  A    between atoms: _376  and  _377
REMARK  155  A    between atoms: _377  and  _378
REMARK  156  A    between atoms: _378  and  _379
REMARK  157  A    between atoms: _379  and  _380
REMARK  158  A    between atoms: _384  and  _386
REMARK  159  A    between atoms: _386  and  _387
REMARK  160  A    between atoms: _386  and  _389
REMARK  161  A    between atoms: _389  and  _390
REMARK  162  A    between atoms: _393  and  _395
REMARK  163  A    between atoms: _395  and  _396
REMARK  164  A    between atoms: _399  and  _401
REMARK  165  A    between atoms: _401  and  _402
REMARK  166  A    between atoms: _401  and  _404
REMARK  167  A    between atoms: _404  and  _405
REMARK  168  A    between atoms: _405  and  _519
REMARK  169  A    between atoms: _406  and  _408
REMARK  170  A    between atoms: _408  and  _409
REMARK  171  A    between atoms: _408  and  _411
REMARK  172  A    between atoms: _411  and  _412
REMARK  173  A    between atoms: _412  and  _413
REMARK  174  A    between atoms: _413  and  _414
REMARK  175  A    between atoms: _414  and  _415
REMARK  176  A    between atoms: _419  and  _421
REMARK  177  A    between atoms: _421  and  _422
REMARK  178  A    between atoms: _424  and  _426
REMARK  179  A    between atoms: _426  and  _427
REMARK  180  A    between atoms: _426  and  _429
REMARK  181  A    between atoms: _429  and  _430
REMARK  182  A    between atoms: _433  and  _435
REMARK  183  A    between atoms: _435  and  _436
REMARK  184  A    between atoms: _435  and  _438
REMARK  185  A    between atoms: _438  and  _439
REMARK  186  A    between atoms: _441  and  _443
REMARK  187  A    between atoms: _443  and  _444
REMARK  188  A    between atoms: _446  and  _448
REMARK  189  A    between atoms: _448  and  _449
REMARK  190  A    between atoms: _451  and  _453
REMARK  191  A    between atoms: _453  and  _454
REMARK  192  A    between atoms: _453  and  _456
REMARK  193  A    between atoms: _456  and  _457
REMARK  194  A    between atoms: _460  and  _462
REMARK  195  A    between atoms: _462  and  _463
REMARK  196  A    between atoms: _462  and  _465
REMARK  197  A    between atoms: _465  and  _466
REMARK  198  A    between atoms: _469  and  _471
REMARK  199  A    between atoms: _471  and  _472
REMARK  200  A    between atoms: _471  and  _474
REMARK  201  A    between atoms: _474  and  _475
REMARK  202  A    between atoms: _477  and  _479
REMARK  203  A    between atoms: _479  and  _480
REMARK  204  A    between atoms: _479  and  _482
REMARK  205  A    between atoms: _482  and  _483
REMARK  206  A    between atoms: _493  and  _495
REMARK  207  A    between atoms: _495  and  _496
REMARK  208  A    between atoms: _498  and  _500
REMARK  209  A    between atoms: _500  and  _501
REMARK  210  A    between atoms: _500  and  _503
REMARK  211  A    between atoms: _503  and  _504
REMARK  212  A    between atoms: _504  and  _505
REMARK  213  A    between atoms: _508  and  _510
REMARK  214  A    between atoms: _510  and  _511
REMARK  215  A    between atoms: _513  and  _515
REMARK  216  A    between atoms: _515  and  _516
REMARK  217  A    between atoms: _515  and  _518
REMARK  218  A    between atoms: _518  and  _519
REMARK  219  A    between atoms: _520  and  _522
REMARK  220  A    between atoms: _522  and  _523
REMARK  221  A    between atoms: _526  and  _528
REMARK  222  A    between atoms: _528  and  _529
REMARK  223  A    between atoms: _528  and  _531
REMARK  224  A    between atoms: _531  and  _532
REMARK  225  A    between atoms: _532  and  _533
REMARK  226  A    between atoms: _538  and  _540
REMARK  227  A    between atoms: _540  and  _541
REMARK  228  A    between atoms: _540  and  _543
REMARK  229  A    between atoms: _543  and  _544
REMARK  230  A    between atoms: _544  and  _545
REMARK  231  A    between atoms: _545  and  _546
REMARK  232  A    between atoms: _556  and  _557
REMARK  233  A    between atoms: _562  and  _564
REMARK  234  A    between atoms: _564  and  _565
REMARK  235  A    between atoms: _567  and  _569
REMARK  236  A    between atoms: _569  and  _570
REMARK  237  A    between atoms: _569  and  _572
REMARK  238  A    between atoms: _575  and  _577
REMARK  239  A    between atoms: _577  and  _578
REMARK  240  A    between atoms: _577  and  _580
REMARK  241  A    between atoms: _580  and  _581
REMARK  242  A    between atoms: _586  and  _587
REMARK  243  A    between atoms: _589  and  _591
REMARK  244  A    between atoms: _591  and  _592
REMARK  245  A    between atoms: _591  and  _594
REMARK  246  A    between atoms: _594  and  _595
REMARK                            x       y       z     vdW  Elec       q    Type
REMARK                         _______ _______ _______ _____ _____    ______ ____
ROOT
ATOM      1  C   ILE A   1      18.841  16.805  38.798  0.00  0.00    +0.238 C 
ATOM      2  O   ILE A   1      19.469  16.325  39.748  0.00  0.00    -0.274 OA
ATOM      3  N   CYS A   2      17.576  16.485  38.532  0.00  0.00    -0.297 N 
ATOM      4  H   CYS A   2      17.127  16.863  37.674  0.00  0.00    +0.150 HD
ENDROOT
BRANCH   1   5
ATOM      5  CA  ILE A   1      19.488  17.840  37.871  0.00  0.00    +0.145 C 
BRANCH   5   6
ATOM      6  N   ILE A   1      20.369  18.698  38.647  0.00  0.00    -0.238 NA
ATOM      7  H   ILE A   1      20.959  18.281  39.395  0.00  0.00    +0.142 HD
ENDBRANCH   5   6
BRANCH   5   8
ATOM      8  CB  ILE A   1      20.233  17.211  36.671  0.00  0.00    +0.025 C 
ATOM      9  CG2 ILE A   1      21.335  16.265  37.133  0.00  0.00    +0.002 C 
BRANCH   8  10
ATOM     10  CG1 ILE A   1      19.232  16.521  35.738  0.00  0.00    +0.002 C 
ATOM     11  CD1 ILE A   1      19.826  16.119  34.407  0.00  0.00    +0.000 C 
ENDBRANCH   8  10
ENDBRANCH   5   8
ENDBRANCH   1   5
BRANCH   3  12
ATOM     12  CA  CYS A   2      16.806  15.619  39.413  0.00  0.00    +0.160 C 
BRANCH  12  13
ATOM     13  C   CYS A   2      16.422  14.298  38.779  0.00  0.00    +0.242 C 
ATOM     14  N   ALA A   3      16.225  13.282  39.608  0.00  0.00    -0.298 N 
ATOM     15  H   ALA A   3      16.357  13.429  40.629  0.00  0.00    +0.150 HD
ATOM     16  O   CYS A   2      16.269  14.211  37.572  0.00  0.00    -0.273 OA
BRANCH  14  17
ATOM     17  CA  ALA A   3      15.828  11.961  39.126  0.00  0.00    +0.137 C 
ATOM     18  CB  ALA A   3      17.050  11.140  38.731  0.00  0.00    +0.030 C 
BRANCH  17  19
ATOM     19  C   ALA A   3      15.048  11.222  40.180  0.00  0.00    +0.227 C 
ATOM     20  O   ALA A   3      15.385  11.271  41.356  0.00  0.00    -0.286 OA
ENDBRANCH  17  19
ENDBRANCH  14  17
ENDBRANCH  12  13
BRANCH  12  21
ATOM     21  CB  CYS A   2      15.541  16.339  39.843  0.00  0.00    +0.098 C 
ATOM     22  SG  CYS A   2      15.895  17.900  40.662  0.00  0.00    -0.080 S 
ENDBRANCH  12  21
ENDBRANCH   3  12
TORSDOF 9
REMARK  Name = ../refined-set-2016/4crb/4crb_pocket.pdb
REMARK  246 active torsions:
REMARK  status: ('A' for Active; 'I' for Inactive)
REMARK    1  A    between atoms: _1  and  _5
REMARK    2  A    between atoms: _5  and  _6
REMARK    3  A    between atoms: _5  and  _8
REMARK    4  A    between atoms: _8  and  _9
REMARK    5  A    between atoms: _12  and  _14
REMARK    6  A    between atoms: _14  and  _15
REMARK    7  A    between atoms: _14  and  _17
REMARK    8  A    between atoms: _20  and  _22
REMARK    9  A    between atoms: _22  and  _23
REMARK   10  A    between atoms: _22  and  _25
REMARK   11  A    between atoms: _25  and  _26
REMARK   12  A    between atoms: _29  and  _31
REMARK   13  A    between atoms: _31  and  _32
REMARK   14  A    between atoms: _31  and  _34
REMARK   15  A    between atoms: _34  and  _35
REMARK   16  A    between atoms: _38  and  _40
REMARK   17  A    between atoms: _40  and  _41
REMARK   18  A    between atoms: _40  and  _43
REMARK   19  A    between atoms: _43  and  _44
REMARK   20  A    between atoms: _47  and  _49
REMARK   21  A    between atoms: _49  and  _50
REMARK   22  A    between atoms: _49  and  _52
REMARK   23  A    between atoms: _52  and  _53
REMARK   24  A    between atoms: _56  and  _58
REMARK   25  A    between atoms: _58  and  _59
REMARK   26  A    between atoms: _58  and  _61
REMARK   27  A    between atoms: _61  and  _62
REMARK   28  A    between atoms: _62  and  _63
REMARK   29  A    between atoms: _68  and  _70
REMARK   30  A    between atoms: _70  and  _71
REMARK   31  A    between atoms: _70  and  _73
REMARK   32  A    between atoms: _73  and  _74
REMARK   33  A    between atoms: _74  and  _75
REMARK   34  A    between atoms: _75  and  _76
REMARK   35  A    between atoms: _85  and  _87
REMARK   36  A    between atoms: _87  and  _88
REMARK   37  A    between atoms: _87  and  _90
REMARK   38  A    between atoms: _90  and  _91
REMARK   39  A    between atoms: _96  and  _98
REMARK   40  A    between atoms: _98  and  _99
REMARK   41  A    between atoms: _98  and  _101
REMARK   42  A    between atoms: _101  and  _102
REMARK   43  A    between atoms: _105  and  _107
REMARK   44  A    between atoms: _107  and  _108
REMARK   45  A    between atoms: _107  and  _110
REMARK   46  A    between atoms: _110  and  _111
REMARK   47  A    between atoms: _111  and  _146
REMARK   48  A    between atoms: _112  and  _114
REMARK   49  A    between atoms: _114  and  _115
REMARK   50  A    between atoms: _117  and  _119
REMARK   51  A    between atoms: _119  and  _120
REMARK   52  A    between atoms: _123  and  _125
REMARK   53  A    between atoms: _125  and  _126
REMARK   54  A    between atoms: _129  and  _131
REMARK   55  A    between atoms: _131  and  _132
REMARK   56  A    between atoms: _131  and  _134
REMARK   57  A    between atoms: _134  and  _135
REMARK   58  A    between atoms: _140  and  _142
REMARK   59  A    between atoms: _142  and  _143
REMARK   60  A    between atoms: _142  and  _145
REMARK   61  A    between atoms: _145  and  _146
REMARK   62  A    between atoms: _147  and  _149
REMARK   63  A    between atoms: _149  and  _150
REMARK   64  A    between atoms: _149  and  _152
REMARK   65  A    between atoms: _152  and  _153
REMARK   66  A    between atoms: _159  and  _161
REMARK   67  A    between atoms: _161  and  _162
REMARK   68  A    between atoms: _161  and  _164
REMARK   69  A    between atoms: _164  and  _165
REMARK   70  A    between atoms: _170  and  _171
REMARK   71  A    between atoms: _173  and  _175
REMARK   72  A    between atoms: _175  and  _176
REMARK   73  A    between atoms: _178  and  _180
REMARK   74  A    between atoms: _180  and  _181
REMARK   75  A    between atoms: _180  and  _183
REMARK   76  A    between atoms: _186  and  _188
REMARK   77  A    between atoms: _188  and  _189
REMARK   78  A    between atoms: _192  and  _194
REMARK   79  A    between atoms: _194  and  _195
REMARK   80  A    between atoms: _194  and  _197
REMARK   81  A    between atoms: _197  and  _198
REMARK   82  A    between atoms: _201  and  _203
REMARK   83  A    between atoms: _203  and  _204
REMARK   84  A    between atoms: _203  and  _206
REMARK   85  A    between atoms: _209  and  _211
REMARK   86  A    between atoms: _211  and  _212
REMARK   87  A    between atoms: _211  and  _214
REMARK   88  A    between atoms: _214  and  _215
REMARK   89  A    between atoms: _225  and  _227
REMARK   90  A    between atoms: _227  and  _228
REMARK   91  A    between atoms: _230  and  _232
REMARK   92  A    between atoms: _232  and  _233
REMARK   93  A    between atoms: _232  and  _235
REMARK   94  A    between atoms: _235  and  _236
REMARK   95  A    between atoms: _241  and  _242
REMARK   96  A    between atoms: _244  and  _246
REMARK   97  A    between atoms: _246  and  _247
REMARK   98  A    between atoms: _246  and  _249
REMARK   99  A    between atoms: _249  and  _250
REMARK  100  A    between atoms: _250  and  _251
REMARK  101  A    between atoms: _251  and  _252
REMARK  102  A    between atoms: _252  and  _253
REMARK  103  A    between atoms: _257  and  _259
REMARK  104  A    between atoms: _259  and  _260
REMARK  105  A    between atoms: _259  and  _262
REMARK  106  A    between atoms: _262  and  _263
REMARK  107  A    between atoms: _266  and  _268
REMARK  108  A    between atoms: _268  and  _269
REMARK  109  A    between atoms: _268  and  _271
REMARK  110  A    between atoms: _271  and  _272
REMARK  111  A    between atoms: _272  and  _273
REMARK  112  A    between atoms: _273  and  _274
REMARK  113  A    between atoms: _283  and  _285
REMARK  114  A    between atoms: _285  and  _286
REMARK  115  A    between atoms: _285  and  _288
REMARK  116  A    between atoms: _288  and  _289
REMARK  117  A    between atoms: _292  and  _294
REMARK  118  A    between atoms: _294  and  _295
REMARK  119  A    between atoms: _294  and  _297
REMARK  120  A    between atoms: _297  and  _298
REMARK  121  A    between atoms: _298  and  _299
REMARK  122  A    between atoms: _299  and  _300
REMARK  123  A    between atoms: _300  and  _301
REMARK  124  A    between atoms: _305  and  _307
REMARK  125  A    between atoms: _307  and  _308
REMARK  126  A    between atoms: _307  and  _310
REMARK  127  A    between atoms: _310  and  _311
REMARK  128  A    between atoms: _314  and  _316
REMARK  129  A    between atoms: _316  and  _317
REMARK  130  A    between atoms: _316  and  _319
REMARK  131  A    between atoms: _319  and  _320
REMARK  132  A    between atoms: _320  and  _321
REMARK  133  A    between atoms: _326  and  _328
REMARK  134  A    between atoms: _328  and  _329
REMARK  135  A    between atoms: _328  and  _331
REMARK  136  A    between atoms: _331  and  _332
REMARK  137  A    between atoms: _335  and  _337
REMARK  138  A    between atoms: _337  and  _338
REMARK  139  A    between atoms: _337  and  _340
REMARK  140  A    between atoms: _340  and  _341
REMARK  141  A    between atoms: _346  and  _347
REMARK  142  A    between atoms: _349  and  _351
REMARK  143  A    between atoms: _351  and  _352
REMARK  144  A    between atoms: _351  and  _354
REMARK  145  A    between atoms: _354  and  _355
REMARK  146  A    between atoms: _358  and  _360
REMARK  147  A    between atoms: _360  and  _361
REMARK  148  A    between atoms: _360  and  _363
REMARK  149  A    between atoms: _365  and  _367
REMARK  150  A    between atoms: _367  and  _368
REMARK  151  A    between atoms: _371  and  _373
REMARK  152  A    between atoms: _373  and  _374
REMARK  153  A    between atoms: _373  and  _376
REMARK  154  A    between atoms: _376  and  _377
REMARK  155  A    between atoms: _377  and  _378
REMARK  156  A    between atoms: _378  and  _379
REMARK  157  A    between atoms: _379  and  _380
REMARK  158  A    between atoms: _384  and  _386
REMARK  159  A    between atoms: _386  and  _387
REMARK  160  A    between atoms: _386  and  _389
REMARK  161  A    between atoms: _389  and  _390
REMARK  162  A    between atoms: _393  and  _395
REMARK  163  A    between atoms: _395  and  _396
REMARK  164  A    between atoms: _399  and  _401
REMARK  165  A    between atoms: _401  and  _402
REMARK  166  A    between atoms: _401  and  _404
REMARK  167  A    between atoms: _404  and  _405
REMARK  168  A    between atoms: _405  and  _519
REMARK  169  A    between atoms: _406  and  _408
REMARK  170  A    between atoms: _408  and  _409
REMARK  171  A    between atoms: _408  and  _411
REMARK  172  A    between atoms: _411  and  _412
REMARK  173  A    between atoms: _412  and  _413
REMARK  174  A    between atoms: _413  and  _414
REMARK  175  A    between atoms: _414  and  _415
REMARK  176  A    between atoms: _419  and  _421
REMARK  177  A    between atoms: _421  and  _422
REMARK  178  A    between atoms: _424  and  _426
REMARK  179  A    between atoms: _426  and  _427
REMARK  180  A    between atoms: _426  and  _429
REMARK  181  A    between atoms: _429  and  _430
REMARK  182  A    between atoms: _433  and  _435
REMARK  183  A    between atoms: _435  and  _436
REMARK  184  A    between atoms: _435  and  _438
REMARK  185  A    between atoms: _438  and  _439
REMARK  186  A    between atoms: _441  and  _443
REMARK  187  A    between atoms: _443  and  _444
REMARK  188  A    between atoms: _446  and  _448
REMARK  189  A    between atoms: _448  and  _449
REMARK  190  A    between atoms: _451  and  _453
REMARK  191  A    between atoms: _453  and  _454
REMARK  192  A    between atoms: _453  and  _456
REMARK  193  A    between atoms: _456  and  _457
REMARK  194  A    between atoms: _460  and  _462
REMARK  195  A    between atoms: _462  and  _463
REMARK  196  A    between atoms: _462  and  _465
REMARK  197  A    between atoms: _465  and  _466
REMARK  198  A    between atoms: _469  and  _471
REMARK  199  A    between atoms: _471  and  _472
REMARK  200  A    between atoms: _471  and  _474
REMARK  201  A    between atoms: _474  and  _475
REMARK  202  A    between atoms: _477  and  _479
REMARK  203  A    between atoms: _479  and  _480
REMARK  204  A    between atoms: _479  and  _482
REMARK  205  A    between atoms: _482  and  _483
REMARK  206  A    between atoms: _493  and  _495
REMARK  207  A    between atoms: _495  and  _496
REMARK  208  A    between atoms: _498  and  _500
REMARK  209  A    between atoms: _500  and  _501
REMARK  210  A    between atoms: _500  and  _503
REMARK  211  A    between atoms: _503  and  _504
REMARK  212  A    between atoms: _504  and  _505
REMARK  213  A    between atoms: _508  and  _510
REMARK  214  A    between atoms: _510  and  _511
REMARK  215  A    between atoms: _513  and  _515
REMARK  216  A    between atoms: _515  and  _516
REMARK  217  A    between atoms: _515  and  _518
REMARK  218  A    between atoms: _518  and  _519
REMARK  219  A    between atoms: _520  and  _522
REMARK  220  A    between atoms: _522  and  _523
REMARK  221  A    between atoms: _526  and  _528
REMARK  222  A    between atoms: _528  and  _529
REMARK  223  A    between atoms: _528  and  _531
REMARK  224  A    between atoms: _531  and  _532
REMARK  225  A    between atoms: _532  and  _533
REMARK  226  A    between atoms: _538  and  _540
REMARK  227  A    between atoms: _540  and  _541
REMARK  228  A    between atoms: _540  and  _543
REMARK  229  A    between atoms: _543  and  _544
REMARK  230  A    between atoms: _544  and  _545
REMARK  231  A    between atoms: _545  and  _546
REMARK  232  A    between atoms: _556  and  _557
REMARK  233  A    between atoms: _562  and  _564
REMARK  234  A    between atoms: _564  and  _565
REMARK  235  A    between atoms: _567  and  _569
REMARK  236  A    between atoms: _569  and  _570
REMARK  237  A    between atoms: _569  and  _572
REMARK  238  A    between atoms: _575  and  _577
REMARK  239  A    between atoms: _577  and  _578
REMARK  240  A    between atoms: _577  and  _580
REMARK  241  A    between atoms: _580  and  _581
REMARK  242  A    between atoms: _586  and  _587
REMARK  243  A    between atoms: _589  and  _591
REMARK  244  A    between atoms: _591  and  _592
REMARK  245  A    between atoms: _591  and  _594
REMARK  246  A    between atoms: _594  and  _595
REMARK                            x       y       z     vdW  Elec       q    Type
REMARK                         _______ _______ _______ _____ _____    ______ ____
ROOT
ATOM      1  CA  SER A   8      15.313   8.583  50.609  0.00  0.00    +0.160 C 
ENDROOT
BRANCH   1   2
ATOM      2  C   SER A   8      14.126   7.871  49.976  0.00  0.00    +0.242 C 
ATOM      3  O   SER A   8      13.362   7.224  50.677  0.00  0.00    -0.273 OA
ATOM      4  N   GLY A   9      13.973   8.007  48.661  0.00  0.00    -0.297 N 
ATOM      5  H   GLY A   9      14.584   8.680  48.155  0.00  0.00    +0.150 HD
BRANCH   4   6
ATOM      6  CA  GLY A   9      12.968   7.240  47.887  0.00  0.00    +0.149 C 
ATOM      7  CB  GLY A   9      13.180   5.741  48.078  0.00  0.00    +0.031 C 
BRANCH   6   8
ATOM      8  C   GLY A   9      11.507   7.595  48.187  0.00  0.00    +0.241 C 
ATOM      9  N   GLY A  10      11.277   8.768  48.770  0.00  0.00    -0.298 N 
ATOM     10  H   GLY A  10      12.073   9.409  48.964  0.00  0.00    +0.150 HD
ATOM     11  O   GLY A   9      10.596   6.816  47.858  0.00  0.00    -0.273 OA
BRANCH   9  12
ATOM     12  CA  GLY A  10       9.935   9.166  49.139  0.00  0.00    +0.137 C 
BRANCH  12  13
ATOM     13  C   GLY A  10       9.131   9.597  47.934  0.00  0.00    +0.227 C 
ATOM     14  O   GLY A  10       9.663  10.118  46.963  0.00  0.00    -0.286 OA
ENDBRANCH  12  13
BRANCH  12  15
ATOM     15  CB  GLY A  10       9.966  10.307  50.154  0.00  0.00    +0.037 C 
BRANCH  15  16
ATOM     16  CG  GLY A  10      10.629   9.942  51.466  0.00  0.00    +0.087 C 
BRANCH  16  17
ATOM     17  CD  GLY A  10      10.224  10.876  52.583  0.00  0.00    +0.219 C 
ATOM     18  OE1 GLY A  10       9.388  10.533  53.410  0.00  0.00    -0.275 OA
ATOM     19  NE2 GLY A  10      10.796  12.071  52.597  0.00  0.00    -0.329 N 
ATOM     20 HE21 GLY A  10      10.540  12.762  53.331  0.00  0.00    +0.145 HD
ATOM     21 HE22 GLY A  10      11.501  12.318  51.874  0.00  0.00    +0.145 HD
ENDBRANCH  16  17
ENDBRANCH  15  16
ENDBRANCH  12  15
ENDBRANCH   9  12
ENDBRANCH   6   8
ENDBRANCH   4   6
ENDBRANCH   1   2
BRANCH   1  22
ATOM     22  N   SER A   8      14.881   9.461  51.704  0.00  0.00    -0.296 N 
ATOM     23  H   SER A   8      14.275   9.074  52.455  0.00  0.00    +0.150 HD
ATOM     24  C   ASP A   7      15.244  10.732  51.758  0.00  0.00    +0.243 C 
ATOM     25  O   ASP A   7      15.980  11.252  50.915  0.00  0.00    -0.273 OA
BRANCH  24  26
ATOM     26  CA  ASP A   7      14.723  11.541  52.936  0.00  0.00    +0.176 C 
BRANCH  26  27
ATOM     27  N   ASP A   7      14.840  12.958  52.669  0.00  0.00    -0.295 N 
ATOM     28  H   ASP A   7      15.493  13.526  53.246  0.00  0.00    +0.150 HD
ATOM     29  C   GLY A   6      14.142  13.557  51.713  0.00  0.00    +0.241 C 
ATOM     30  O   GLY A   6      13.239  13.009  51.099  0.00  0.00    -0.273 OA
BRANCH  29  31
ATOM     31  CA  GLY A   6      14.488  14.986  51.417  0.00  0.00    +0.149 C 
BRANCH  31  32
ATOM     32  N   GLY A   6      15.205  15.053  50.134  0.00  0.00    -0.297 N 
ATOM     33  C   LYS A   5      16.531  14.925  50.113  0.00  0.00    +0.243 C 
ATOM     34  O   LYS A   5      17.208  14.868  51.145  0.00  0.00    -0.273 OA
ATOM     35  H   GLY A   6      14.680  15.199  49.248  0.00  0.00    +0.150 HD
BRANCH  33  36
ATOM     36  CA  LYS A   5      17.210  14.884  48.757  0.00  0.00    +0.176 C 
BRANCH  36  37
ATOM     37  N   LYS A   5      18.642  15.067  48.946  0.00  0.00    -0.295 N 
ATOM     38  H   LYS A   5      19.021  15.077  49.914  0.00  0.00    +0.150 HD
ATOM     39  C   TRP A   4      19.482  15.221  47.930  0.00  0.00    +0.241 C 
ATOM     40  O   TRP A   4      19.139  15.131  46.756  0.00  0.00    -0.273 OA
BRANCH  39  41
ATOM     41  CA  TRP A   4      20.913  15.577  48.318  0.00  0.00    +0.153 C 
BRANCH  41  42
ATOM     42  N   TRP A   4      21.863  15.456  47.197  0.00  0.00    -0.297 N 
ATOM     43  C   SER A   3      23.170  15.350  47.419  0.00  0.00    +0.243 C 
ATOM     44  O   SER A   3      23.656  15.297  48.560  0.00  0.00    -0.273 OA
ATOM     45  H   TRP A   4      21.506  15.454  46.220  0.00  0.00    +0.150 HD
BRANCH  43  46
ATOM     46  CA  SER A   3      24.084  15.283  46.191  0.00  0.00    +0.178 C 
BRANCH  46  47
ATOM     47  N   SER A   3      23.862  14.104  45.359  0.00  0.00    -0.295 N 
ATOM     48  C   THR A   2      24.867  13.268  45.104  0.00  0.00    +0.243 C 
ATOM     49  O   THR A   2      25.953  13.348  45.678  0.00  0.00    -0.273 OA
ATOM     50  H   SER A   3      22.918  13.917  44.965  0.00  0.00    +0.150 HD
BRANCH  48  51
ATOM     51  CA  THR A   2      24.624  12.237  44.009  0.00  0.00    +0.176 C 
BRANCH  51  52
ATOM     52  N   THR A   2      25.544  12.404  42.887  0.00  0.00    -0.295 N 
ATOM     53  H   THR A   2      26.075  11.572  42.559  0.00  0.00    +0.150 HD
ATOM     54  C   ILE A   1      25.740  13.559  42.262  0.00  0.00    +0.238 C 
ATOM     55  O   ILE A   1      25.122  14.591  42.537  0.00  0.00    -0.274 OA
BRANCH  54  56
ATOM     56  CA  ILE A   1      26.805  13.557  41.160  0.00  0.00    +0.145 C 
BRANCH  56  57
ATOM     57  N   ILE A   1      26.174  13.993  39.921  0.00  0.00    -0.238 NA
ATOM     58  H   ILE A   1      25.830  14.973  39.870  0.00  0.00    +0.142 HD
ENDBRANCH  56  57
BRANCH  56  59
ATOM     59  CB  ILE A   1      27.941  14.498  41.590  0.00  0.00    +0.025 C 
ATOM     60  CG2 ILE A   1      28.614  13.987  42.863  0.00  0.00    +0.002 C 
BRANCH  59  61
ATOM     61  CG1 ILE A   1      28.974  14.652  40.482  0.00  0.00    +0.002 C 
ATOM     62  CD1 ILE A   1      29.846  15.866  40.655  0.00  0.00    +0.000 C 
ENDBRANCH  59  61
ENDBRANCH  56  59
ENDBRANCH  54  56
ENDBRANCH  51  52
BRANCH  51  63
ATOM     63  CB  THR A   2      24.711  10.806  44.557  0.00  0.00    +0.137 C 
ATOM     64  CG2 THR A   2      23.688  10.567  45.645  0.00  0.00    +0.034 C 
BRANCH  63  65
ATOM     65  OG1 THR A   2      24.450   9.902  43.476  0.00  0.00    -0.382 OA
ATOM     66  HG1 THR A   2      24.501   8.970  43.807  0.00  0.00    +0.210 HD
ENDBRANCH  63  65
ENDBRANCH  51  63
ENDBRANCH  48  51
ENDBRANCH  46  47
BRANCH  46  67
ATOM     67  CB  SER A   3      23.966  16.542  45.341  0.00  0.00    +0.166 C 
BRANCH  67  68
ATOM     68  OG  SER A   3      24.258  17.718  46.091  0.00  0.00    -0.380 OA
ATOM     69  H   SER A   3      25.183  17.664  46.440  0.00  0.00    +0.211 HD
ENDBRANCH  67  68
ENDBRANCH  46  67
ENDBRANCH  43  46
ENDBRANCH  41  42
BRANCH  41  70
ATOM     70  CB  TRP A   4      20.956  17.000  48.925  0.00  0.00    +0.057 C 
BRANCH  70  71
ATOM     71  CG  TRP A   4      20.490  18.087  47.998  0.00  0.00    -0.002 A 
ATOM     72  CD2 TRP A   4      19.172  18.666  47.927  0.00  0.00    +0.013 A 
ATOM     73  CE3 TRP A   4      17.980  18.475  48.649  0.00  0.00    +0.001 A 
ATOM     74  CZ3 TRP A   4      16.865  19.238  48.305  0.00  0.00    +0.000 A 
ATOM     75  CH2 TRP A   4      16.925  20.180  47.281  0.00  0.00    +0.001 A 
ATOM     76  CZ2 TRP A   4      18.077  20.398  46.567  0.00  0.00    +0.017 A 
ATOM     77  CE2 TRP A   4      19.198  19.625  46.902  0.00  0.00    +0.056 A 
ATOM     78  NE1 TRP A   4      20.462  19.627  46.376  0.00  0.00    -0.352 N 
ATOM     79  HE1 TRP A   4      20.788  20.236  45.599  0.00  0.00    +0.166 HD
ATOM     80  CD1 TRP A   4      21.227  18.707  47.029  0.00  0.00    +0.068 A 
ENDBRANCH  70  71
ENDBRANCH  41  70
ENDBRANCH  39  41
ENDBRANCH  36  37
ENDBRANCH  33  36
ENDBRANCH  31  32
BRANCH  31  81
ATOM     81  CB  GLY A   6      13.195  15.818  51.411  0.00  0.00    +0.041 C 
BRANCH  81  82
ATOM     82  CG  GLY A   6      12.483  15.808  52.764  0.00  0.00    +0.116 C 
BRANCH  82  83
ATOM     83  CD  GLY A   6      13.389  16.274  53.893  0.00  0.00    +0.365 C 
ATOM     84  OE2 GLY A   6      13.564  15.542  54.893  0.00  0.00    -0.246 OA
ATOM     85  OE1 GLY A   6      13.943  17.380  53.763  0.00  0.00    -0.246 OA
ENDBRANCH  82  83
ENDBRANCH  81  82
ENDBRANCH  31  81
ENDBRANCH  29  31
ENDBRANCH  26  27
ENDBRANCH  24  26
ENDBRANCH   1  22
BRANCH   1  86
ATOM     86  CB  SER A   8      16.288   7.529  51.137  0.00  0.00    +0.098 C 
BRANCH  86  87
ATOM     87  SG  SER A   8      17.730   8.244  51.959  0.00  0.00    -0.080 S 
BRANCH  87  88
ATOM     88  SG  TRP A   4      18.844   6.634  52.461  0.00  0.00    -0.080 S 
BRANCH  88  89
ATOM     89  CB  TRP A   4      19.645   6.145  50.902  0.00  0.00    +0.098 C 
BRANCH  89  90
ATOM     90  CA  TRP A   4      20.429   7.268  50.218  0.00  0.00    +0.160 C 
BRANCH  90  91
ATOM     91  C   TRP A   4      21.793   7.472  50.872  0.00  0.00    +0.242 C 
ATOM     92  N   LYS A   5      21.841   7.464  52.206  0.00  0.00    -0.297 N 
ATOM     93  H   LYS A   5      20.981   7.234  52.743  0.00  0.00    +0.150 HD
ATOM     94  O   TRP A   4      22.796   7.621  50.171  0.00  0.00    -0.273 OA
BRANCH  92  95
ATOM     95  CA  LYS A   5      23.076   7.772  52.931  0.00  0.00    +0.149 C 
BRANCH  95  96
ATOM     96  C   LYS A   5      24.209   6.813  52.588  0.00  0.00    +0.241 C 
ATOM     97  O   LYS A   5      24.033   5.603  52.639  0.00  0.00    -0.273 OA
ATOM     98  N   GLY A   6      25.370   7.369  52.248  0.00  0.00    -0.295 N 
ATOM     99  H   GLY A   6      25.463   8.404  52.289  0.00  0.00    +0.150 HD
BRANCH  98 100
ATOM    100  CA  GLY A   6      26.518   6.573  51.819  0.00  0.00    +0.176 C 
BRANCH 100 101
ATOM    101  C   GLY A   6      26.696   6.560  50.308  0.00  0.00    +0.243 C 
ATOM    102  O   GLY A   6      27.760   6.171  49.814  0.00  0.00    -0.273 OA
ATOM    103  N   ASP A   7      25.667   6.974  49.565  0.00  0.00    -0.296 N 
ATOM    104  H   ASP A   7      24.782   7.264  50.028  0.00  0.00    +0.150 HD
BRANCH 103 105
ATOM    105  CA  ASP A   7      25.770   7.025  48.096  0.00  0.00    +0.160 C 
BRANCH 105 106
ATOM    106  C   ASP A   7      26.306   8.333  47.581  0.00  0.00    +0.241 C 
ATOM    107  N   SER A   8      26.295   9.365  48.413  0.00  0.00    -0.295 N 
ATOM    108  H   SER A   8      26.069   9.223  49.418  0.00  0.00    +0.150 HD
ATOM    109  O   ASP A   7      26.693   8.425  46.424  0.00  0.00    -0.273 OA
BRANCH 107 110
ATOM    110  CA  SER A   8      26.601  10.698  47.914  0.00  0.00    +0.178 C 
BRANCH 110 111
ATOM    111  C   SER A   8      28.006  10.727  47.345  0.00  0.00    +0.243 C 
ATOM    112  O   SER A   8      28.883   9.973  47.766  0.00  0.00    -0.273 OA
ATOM    113  N   GLY A   9      28.206  11.589  46.360  0.00  0.00    -0.295 N 
ATOM    114  H   GLY A   9      27.426  12.208  46.061  0.00  0.00    +0.150 HD
BRANCH 113 115
ATOM    115  CA  GLY A   9      29.478  11.690  45.692  0.00  0.00    +0.176 C 
BRANCH 115 116
ATOM    116  C   GLY A   9      29.628  10.740  44.514  0.00  0.00    +0.243 C 
ATOM    117  N   GLY A  10      28.838   9.674  44.486  0.00  0.00    -0.296 N 
ATOM    118  H   GLY A  10      28.193   9.503  45.284  0.00  0.00    +0.150 HD
ATOM    119  O   GLY A   9      30.464  10.969  43.650  0.00  0.00    -0.273 OA
BRANCH 117 120
ATOM    120  CA  GLY A  10      28.847   8.738  43.373  0.00  0.00    +0.163 C 
BRANCH 120 121
ATOM    121  C   GLY A  10      28.145   9.249  42.121  0.00  0.00    +0.229 C 
ATOM    122  O   GLY A  10      27.568  10.346  42.105  0.00  0.00    -0.286 OA
ENDBRANCH 120 121
ENDBRANCH 117 120
ENDBRANCH 115 116
ENDBRANCH 113 115
ENDBRANCH 110 111
BRANCH 110 123
ATOM    123  CB  SER A   8      26.392  11.758  48.987  0.00  0.00    +0.166 C 
BRANCH 123 124
ATOM    124  OG  SER A   8      27.433  11.772  49.931  0.00  0.00    -0.380 OA
ATOM    125  H   SER A   8      27.255  12.474  50.606  0.00  0.00    +0.211 HD
ENDBRANCH 123 124
ENDBRANCH 110 123
ENDBRANCH 107 110
ENDBRANCH 105 106
BRANCH 105 126
ATOM    126  CB  ASP A   7      24.417   6.788  47.434  0.00  0.00    +0.143 C 
BRANCH 126 127
ATOM    127  CG  ASP A   7      23.893   5.411  47.691  0.00  0.00    +0.367 C 
ATOM    128  OD2 ASP A   7      22.686   5.300  47.968  0.00  0.00    -0.246 OA
ATOM    129  OD1 ASP A   7      24.693   4.451  47.625  0.00  0.00    -0.246 OA
ENDBRANCH 126 127
ENDBRANCH 105 126
ENDBRANCH 103 105
ENDBRANCH 100 101
ENDBRANCH  98 100
ENDBRANCH  95  96
BRANCH  95 130
ATOM    130  CB  LYS A   5      22.845   7.760  54.442  0.00  0.00    +0.029 C 
BRANCH 130 131
ATOM    131  CG  LYS A   5      22.036   8.949  54.924  0.00  0.00    +0.000 C 
BRANCH 131 132
ATOM    132  CD  LYS A   5      21.963   8.986  56.448  0.00  0.00    -0.024 C 
BRANCH 132 133
ATOM    133  CE  LYS A   5      20.932  10.004  56.926  0.00  0.00    -0.086 C 
BRANCH 133 134
ATOM    134  NZ  LYS A   5      21.079  11.325  56.255  0.00  0.00    +0.380 N 
ATOM    135  HZ1 LYS A   5      20.355  11.978  56.616  0.00  0.00    -0.089 HD
ATOM    136  HZ2 LYS A   5      22.025  11.710  56.453  0.00  0.00    -0.089 HD
ATOM    137  HZ3 LYS A   5      20.960  11.206  55.229  0.00  0.00    -0.089 HD
ENDBRANCH 133 134
ENDBRANCH 132 133
ENDBRANCH 131 132
ENDBRANCH 130 131
ENDBRANCH  95 130
ENDBRANCH  92  95
ENDBRANCH  90  91
BRANCH  90 139
ATOM    138  C   SER A   3      19.714   7.362  47.873  0.00  0.00    +0.241 C 
ATOM    139  N   TRP A   4      20.603   6.992  48.787  0.00  0.00    -0.296 N 
ATOM    140  H   TRP A   4      21.457   6.486  48.477  0.00  0.00    +0.150 HD
ATOM    141  O   SER A   3      18.605   7.832  48.167  0.00  0.00    -0.273 OA
BRANCH 138 142
ATOM    142  CA  SER A   3      20.130   7.182  46.408  0.00  0.00    +0.149 C 
ATOM    143  CB  SER A   3      21.073   8.290  45.991  0.00  0.00    +0.031 C 
BRANCH 142 146
ATOM    144  C   THR A   2      18.062   6.224  45.619  0.00  0.00    +0.241 C 
ATOM    145  O   THR A   2      18.338   5.119  46.079  0.00  0.00    -0.273 OA
ATOM    146  N   SER A   3      18.945   7.208  45.563  0.00  0.00    -0.297 N 
ATOM    147  H   SER A   3      18.792   8.004  44.912  0.00  0.00    +0.150 HD
BRANCH 144 148
ATOM    148  CA  THR A   2      16.668   6.541  45.082  0.00  0.00    +0.160 C 
BRANCH 148 150
ATOM    149  C   ILE A   1      14.795   5.281  44.152  0.00  0.00    +0.238 C 
ATOM    150  N   THR A   2      15.950   5.295  44.816  0.00  0.00    -0.297 N 
ATOM    151  H   THR A   2      16.351   4.397  45.154  0.00  0.00    +0.150 HD
ATOM    152  O   ILE A   1      14.336   6.272  43.597  0.00  0.00    -0.274 OA
BRANCH 149 153
ATOM    153  CA  ILE A   1      14.057   3.951  44.081  0.00  0.00    +0.145 C 
BRANCH 153 154
ATOM    154  N   ILE A   1      12.633   4.079  44.463  0.00  0.00    -0.238 NA
ATOM    155  H   ILE A   1      12.050   4.817  44.019  0.00  0.00    +0.142 HD
ENDBRANCH 153 154
BRANCH 153 156
ATOM    156  CB  ILE A   1      14.179   3.371  42.671  0.00  0.00    +0.026 C 
BRANCH 156 157
ATOM    157  CG  ILE A   1      13.642   1.957  42.576  0.00  0.00    -0.000 C 
BRANCH 157 158
ATOM    158  CD  ILE A   1      13.809   1.399  41.177  0.00  0.00    -0.024 C 
BRANCH 158 159
ATOM    159  CE  ILE A   1      13.243  -0.002  41.080  0.00  0.00    -0.086 C 
BRANCH 159 160
ATOM    160  NZ  ILE A   1      13.280  -0.480  39.677  0.00  0.00    +0.380 N 
ATOM    161  HZ1 ILE A   1      12.888  -1.442  39.629  0.00  0.00    -0.089 HD
ATOM    162  HZ2 ILE A   1      14.264  -0.488  39.341  0.00  0.00    -0.089 HD
ATOM    163  HZ3 ILE A   1      12.714   0.156  39.080  0.00  0.00    -0.089 HD
ENDBRANCH 159 160
ENDBRANCH 158 159
ENDBRANCH 157 158
ENDBRANCH 156 157
ENDBRANCH 153 156
ENDBRANCH 149 153
ENDBRANCH 148 150
BRANCH 148 164
ATOM    164  CB  THR A   2      15.868   7.378  46.124  0.00  0.00    +0.143 C 
BRANCH 164 165
ATOM    165  CG  THR A   2      16.223   8.876  46.136  0.00  0.00    +0.367 C 
ATOM    166  OD2 THR A   2      15.684   9.607  47.028  0.00  0.00    -0.246 OA
ATOM    167  OD1 THR A   2      17.031   9.342  45.299  0.00  0.00    -0.246 OA
ENDBRANCH 164 165
ENDBRANCH 148 164
ENDBRANCH 144 148
ENDBRANCH 142 146
ENDBRANCH 138 142
ENDBRANCH  90 139
ENDBRANCH  89  90
ENDBRANCH  88  89
ENDBRANCH  87  88
ENDBRANCH  86  87
ENDBRANCH   1  86
TORSDOF 75
REMARK  Name = ../refined-set-2016/4crb/4crb_pocket.pdb
REMARK  246 active torsions:
REMARK  status: ('A' for Active; 'I' for Inactive)
REMARK    1  A    between atoms: _1  and  _5
REMARK    2  A    between atoms: _5  and  _6
REMARK    3  A    between atoms: _5  and  _8
REMARK    4  A    between atoms: _8  and  _9
REMARK    5  A    between atoms: _12  and  _14
REMARK    6  A    between atoms: _14  and  _15
REMARK    7  A    between atoms: _14  and  _17
REMARK    8  A    between atoms: _20  and  _22
REMARK    9  A    between atoms: _22  and  _23
REMARK   10  A    between atoms: _22  and  _25
REMARK   11  A    between atoms: _25  and  _26
REMARK   12  A    between atoms: _29  and  _31
REMARK   13  A    between atoms: _31  and  _32
REMARK   14  A    between atoms: _31  and  _34
REMARK   15  A    between atoms: _34  and  _35
REMARK   16  A    between atoms: _38  and  _40
REMARK   17  A    between atoms: _40  and  _41
REMARK   18  A    between atoms: _40  and  _43
REMARK   19  A    between atoms: _43  and  _44
REMARK   20  A    between atoms: _47  and  _49
REMARK   21  A    between atoms: _49  and  _50
REMARK   22  A    between atoms: _49  and  _52
REMARK   23  A    between atoms: _52  and  _53
REMARK   24  A    between atoms: _56  and  _58
REMARK   25  A    between atoms: _58  and  _59
REMARK   26  A    between atoms: _58  and  _61
REMARK   27  A    between atoms: _61  and  _62
REMARK   28  A    between atoms: _62  and  _63
REMARK   29  A    between atoms: _68  and  _70
REMARK   30  A    between atoms: _70  and  _71
REMARK   31  A    between atoms: _70  and  _73
REMARK   32  A    between atoms: _73  and  _74
REMARK   33  A    between atoms: _74  and  _75
REMARK   34  A    between atoms: _75  and  _76
REMARK   35  A    between atoms: _85  and  _87
REMARK   36  A    between atoms: _87  and  _88
REMARK   37  A    between atoms: _87  and  _90
REMARK   38  A    between atoms: _90  and  _91
REMARK   39  A    between atoms: _96  and  _98
REMARK   40  A    between atoms: _98  and  _99
REMARK   41  A    between atoms: _98  and  _101
REMARK   42  A    between atoms: _101  and  _102
REMARK   43  A    between atoms: _105  and  _107
REMARK   44  A    between atoms: _107  and  _108
REMARK   45  A    between atoms: _107  and  _110
REMARK   46  A    between atoms: _110  and  _111
REMARK   47  A    between atoms: _111  and  _146
REMARK   48  A    between atoms: _112  and  _114
REMARK   49  A    between atoms: _114  and  _115
REMARK   50  A    between atoms: _117  and  _119
REMARK   51  A    between atoms: _119  and  _120
REMARK   52  A    between atoms: _123  and  _125
REMARK   53  A    between atoms: _125  and  _126
REMARK   54  A    between atoms: _129  and  _131
REMARK   55  A    between atoms: _131  and  _132
REMARK   56  A    between atoms: _131  and  _134
REMARK   57  A    between atoms: _134  and  _135
REMARK   58  A    between atoms: _140  and  _142
REMARK   59  A    between atoms: _142  and  _143
REMARK   60  A    between atoms: _142  and  _145
REMARK   61  A    between atoms: _145  and  _146
REMARK   62  A    between atoms: _147  and  _149
REMARK   63  A    between atoms: _149  and  _150
REMARK   64  A    between atoms: _149  and  _152
REMARK   65  A    between atoms: _152  and  _153
REMARK   66  A    between atoms: _159  and  _161
REMARK   67  A    between atoms: _161  and  _162
REMARK   68  A    between atoms: _161  and  _164
REMARK   69  A    between atoms: _164  and  _165
REMARK   70  A    between atoms: _170  and  _171
REMARK   71  A    between atoms: _173  and  _175
REMARK   72  A    between atoms: _175  and  _176
REMARK   73  A    between atoms: _178  and  _180
REMARK   74  A    between atoms: _180  and  _181
REMARK   75  A    between atoms: _180  and  _183
REMARK   76  A    between atoms: _186  and  _188
REMARK   77  A    between atoms: _188  and  _189
REMARK   78  A    between atoms: _192  and  _194
REMARK   79  A    between atoms: _194  and  _195
REMARK   80  A    between atoms: _194  and  _197
REMARK   81  A    between atoms: _197  and  _198
REMARK   82  A    between atoms: _201  and  _203
REMARK   83  A    between atoms: _203  and  _204
REMARK   84  A    between atoms: _203  and  _206
REMARK   85  A    between atoms: _209  and  _211
REMARK   86  A    between atoms: _211  and  _212
REMARK   87  A    between atoms: _211  and  _214
REMARK   88  A    between atoms: _214  and  _215
REMARK   89  A    between atoms: _225  and  _227
REMARK   90  A    between atoms: _227  and  _228
REMARK   91  A    between atoms: _230  and  _232
REMARK   92  A    between atoms: _232  and  _233
REMARK   93  A    between atoms: _232  and  _235
REMARK   94  A    between atoms: _235  and  _236
REMARK   95  A    between atoms: _241  and  _242
REMARK   96  A    between atoms: _244  and  _246
REMARK   97  A    between atoms: _246  and  _247
REMARK   98  A    between atoms: _246  and  _249
REMARK   99  A    between atoms: _249  and  _250
REMARK  100  A    between atoms: _250  and  _251
REMARK  101  A    between atoms: _251  and  _252
REMARK  102  A    between atoms: _252  and  _253
REMARK  103  A    between atoms: _257  and  _259
REMARK  104  A    between atoms: _259  and  _260
REMARK  105  A    between atoms: _259  and  _262
REMARK  106  A    between atoms: _262  and  _263
REMARK  107  A    between atoms: _266  and  _268
REMARK  108  A    between atoms: _268  and  _269
REMARK  109  A    between atoms: _268  and  _271
REMARK  110  A    between atoms: _271  and  _272
REMARK  111  A    between atoms: _272  and  _273
REMARK  112  A    between atoms: _273  and  _274
REMARK  113  A    between atoms: _283  and  _285
REMARK  114  A    between atoms: _285  and  _286
REMARK  115  A    between atoms: _285  and  _288
REMARK  116  A    between atoms: _288  and  _289
REMARK  117  A    between atoms: _292  and  _294
REMARK  118  A    between atoms: _294  and  _295
REMARK  119  A    between atoms: _294  and  _297
REMARK  120  A    between atoms: _297  and  _298
REMARK  121  A    between atoms: _298  and  _299
REMARK  122  A    between atoms: _299  and  _300
REMARK  123  A    between atoms: _300  and  _301
REMARK  124  A    between atoms: _305  and  _307
REMARK  125  A    between atoms: _307  and  _308
REMARK  126  A    between atoms: _307  and  _310
REMARK  127  A    between atoms: _310  and  _311
REMARK  128  A    between atoms: _314  and  _316
REMARK  129  A    between atoms: _316  and  _317
REMARK  130  A    between atoms: _316  and  _319
REMARK  131  A    between atoms: _319  and  _320
REMARK  132  A    between atoms: _320  and  _321
REMARK  133  A    between atoms: _326  and  _328
REMARK  134  A    between atoms: _328  and  _329
REMARK  135  A    between atoms: _328  and  _331
REMARK  136  A    between atoms: _331  and  _332
REMARK  137  A    between atoms: _335  and  _337
REMARK  138  A    between atoms: _337  and  _338
REMARK  139  A    between atoms: _337  and  _340
REMARK  140  A    between atoms: _340  and  _341
REMARK  141  A    between atoms: _346  and  _347
REMARK  142  A    between atoms: _349  and  _351
REMARK  143  A    between atoms: _351  and  _352
REMARK  144  A    between atoms: _351  and  _354
REMARK  145  A    between atoms: _354  and  _355
REMARK  146  A    between atoms: _358  and  _360
REMARK  147  A    between atoms: _360  and  _361
REMARK  148  A    between atoms: _360  and  _363
REMARK  149  A    between atoms: _365  and  _367
REMARK  150  A    between atoms: _367  and  _368
REMARK  151  A    between atoms: _371  and  _373
REMARK  152  A    between atoms: _373  and  _374
REMARK  153  A    between atoms: _373  and  _376
REMARK  154  A    between atoms: _376  and  _377
REMARK  155  A    between atoms: _377  and  _378
REMARK  156  A    between atoms: _378  and  _379
REMARK  157  A    between atoms: _379  and  _380
REMARK  158  A    between atoms: _384  and  _386
REMARK  159  A    between atoms: _386  and  _387
REMARK  160  A    between atoms: _386  and  _389
REMARK  161  A    between atoms: _389  and  _390
REMARK  162  A    between atoms: _393  and  _395
REMARK  163  A    between atoms: _395  and  _396
REMARK  164  A    between atoms: _399  and  _401
REMARK  165  A    between atoms: _401  and  _402
REMARK  166  A    between atoms: _401  and  _404
REMARK  167  A    between atoms: _404  and  _405
REMARK  168  A    between atoms: _405  and  _519
REMARK  169  A    between atoms: _406  and  _408
REMARK  170  A    between atoms: _408  and  _409
REMARK  171  A    between atoms: _408  and  _411
REMARK  172  A    between atoms: _411  and  _412
REMARK  173  A    between atoms: _412  and  _413
REMARK  174  A    between atoms: _413  and  _414
REMARK  175  A    between atoms: _414  and  _415
REMARK  176  A    between atoms: _419  and  _421
REMARK  177  A    between atoms: _421  and  _422
REMARK  178  A    between atoms: _424  and  _426
REMARK  179  A    between atoms: _426  and  _427
REMARK  180  A    between atoms: _426  and  _429
REMARK  181  A    between atoms: _429  and  _430
REMARK  182  A    between atoms: _433  and  _435
REMARK  183  A    between atoms: _435  and  _436
REMARK  184  A    between atoms: _435  and  _438
REMARK  185  A    between atoms: _438  and  _439
REMARK  186  A    between atoms: _441  and  _443
REMARK  187  A    between atoms: _443  and  _444
REMARK  188  A    between atoms: _446  and  _448
REMARK  189  A    between atoms: _448  and  _449
REMARK  190  A    between atoms: _451  and  _453
REMARK  191  A    between atoms: _453  and  _454
REMARK  192  A    between atoms: _453  and  _456
REMARK  193  A    between atoms: _456  and  _457
REMARK  194  A    between atoms: _460  and  _462
REMARK  195  A    between atoms: _462  and  _463
REMARK  196  A    between atoms: _462  and  _465
REMARK  197  A    between atoms: _465  and  _466
REMARK  198  A    between atoms: _469  and  _471
REMARK  199  A    between atoms: _471  and  _472
REMARK  200  A    between atoms: _471  and  _474
REMARK  201  A    between atoms: _474  and  _475
REMARK  202  A    between atoms: _477  and  _479
REMARK  203  A    between atoms: _479  and  _480
REMARK  204  A    between atoms: _479  and  _482
REMARK  205  A    between atoms: _482  and  _483
REMARK  206  A    between atoms: _493  and  _495
REMARK  207  A    between atoms: _495  and  _496
REMARK  208  A    between atoms: _498  and  _500
REMARK  209  A    between atoms: _500  and  _501
REMARK  210  A    between atoms: _500  and  _503
REMARK  211  A    between atoms: _503  and  _504
REMARK  212  A    between atoms: _504  and  _505
REMARK  213  A    between atoms: _508  and  _510
REMARK  214  A    between atoms: _510  and  _511
REMARK  215  A    between atoms: _513  and  _515
REMARK  216  A    between atoms: _515  and  _516
REMARK  217  A    between atoms: _515  and  _518
REMARK  218  A    between atoms: _518  and  _519
REMARK  219  A    between atoms: _520  and  _522
REMARK  220  A    between atoms: _522  and  _523
REMARK  221  A    between atoms: _526  and  _528
REMARK  222  A    between atoms: _528  and  _529
REMARK  223  A    between atoms: _528  and  _531
REMARK  224  A    between atoms: _531  and  _532
REMARK  225  A    between atoms: _532  and  _533
REMARK  226  A    between atoms: _538  and  _540
REMARK  227  A    between atoms: _540  and  _541
REMARK  228  A    between atoms: _540  and  _543
REMARK  229  A    between atoms: _543  and  _544
REMARK  230  A    between atoms: _544  and  _545
REMARK  231  A    between atoms: _545  and  _546
REMARK  232  A    between atoms: _556  and  _557
REMARK  233  A    between atoms: _562  and  _564
REMARK  234  A    between atoms: _564  and  _565
REMARK  235  A    between atoms: _567  and  _569
REMARK  236  A    between atoms: _569  and  _570
REMARK  237  A    between atoms: _569  and  _572
REMARK  238  A    between atoms: _575  and  _577
REMARK  239  A    between atoms: _577  and  _578
REMARK  240  A    between atoms: _577  and  _580
REMARK  241  A    between atoms: _580  and  _581
REMARK  242  A    between atoms: _586  and  _587
REMARK  243  A    between atoms: _589  and  _591
REMARK  244  A    between atoms: _591  and  _592
REMARK  245  A    between atoms: _591  and  _594
REMARK  246  A    between atoms: _594  and  _595
REMARK                            x       y       z     vdW  Elec       q    Type
REMARK                         _______ _______ _______ _____ _____    ______ ____
ROOT
ATOM      1  C   GLY A   3      17.513  14.027  43.468  0.00  0.00    +0.243 C 
ATOM      2  N   VAL A   4      18.411  14.778  44.086  0.00  0.00    -0.297 N 
ATOM      3  H   VAL A   4      18.726  14.507  45.039  0.00  0.00    +0.150 HD
ATOM      4  O   GLY A   3      17.110  14.265  42.330  0.00  0.00    -0.273 OA
ENDROOT
BRANCH   2   5
ATOM      5  CA  VAL A   4      18.965  15.960  43.476  0.00  0.00    +0.149 C 
BRANCH   5   6
ATOM      6  C   VAL A   4      20.448  15.725  43.274  0.00  0.00    +0.241 C 
ATOM      7  O   VAL A   4      21.151  15.344  44.214  0.00  0.00    -0.273 OA
ATOM      8  N   TYR A   5      20.892  15.957  42.038  0.00  0.00    -0.297 N 
ATOM      9  H   TYR A   5      20.224  16.357  41.349  0.00  0.00    +0.150 HD
BRANCH   8  10
ATOM     10  CA  TYR A   5      22.253  15.687  41.590  0.00  0.00    +0.153 C 
BRANCH  10  11
ATOM     11  C   TYR A   5      22.920  16.947  41.044  0.00  0.00    +0.241 C 
ATOM     12  N   THR A   6      24.229  17.032  41.230  0.00  0.00    -0.296 N 
ATOM     13  H   THR A   6      24.707  16.326  41.826  0.00  0.00    +0.150 HD
ATOM     14  O   TYR A   5      22.264  17.837  40.479  0.00  0.00    -0.273 OA
BRANCH  12  15
ATOM     15  CA  THR A   6      25.006  18.089  40.620  0.00  0.00    +0.164 C 
BRANCH  15  16
ATOM     16  C   THR A   6      24.959  17.842  39.107  0.00  0.00    +0.229 C 
ATOM     17  O   THR A   6      25.202  16.727  38.650  0.00  0.00    -0.286 OA
ENDBRANCH  15  16
BRANCH  15  18
ATOM     18  CB  THR A   6      26.436  18.080  41.152  0.00  0.00    +0.136 C 
ATOM     19  CG2 THR A   6      27.276  19.142  40.495  0.00  0.00    +0.034 C 
BRANCH  18  20
ATOM     20  OG1 THR A   6      26.407  18.321  42.573  0.00  0.00    -0.382 OA
ATOM     21  HG1 THR A   6      25.989  19.201  42.749  0.00  0.00    +0.210 HD
ENDBRANCH  18  20
ENDBRANCH  15  18
ENDBRANCH  12  15
ENDBRANCH  10  11
BRANCH  10  22
ATOM     22  CB  TYR A   5      22.259  14.588  40.510  0.00  0.00    +0.055 C 
BRANCH  22  23
ATOM     23  CG  TYR A   5      21.634  13.288  40.972  0.00  0.00    -0.020 A 
ATOM     24  CD2 TYR A   5      22.418  12.179  41.284  0.00  0.00    -0.001 A 
ATOM     25  CE2 TYR A   5      21.847  10.997  41.725  0.00  0.00    +0.036 A 
ATOM     26  CZ  TYR A   5      20.483  10.901  41.870  0.00  0.00    +0.134 A 
ATOM     27  CE1 TYR A   5      19.678  11.983  41.567  0.00  0.00    +0.036 A 
ATOM     28  CD1 TYR A   5      20.249  13.159  41.109  0.00  0.00    -0.001 A 
BRANCH  26  29
ATOM     29  OH  TYR A   5      19.937   9.717  42.312  0.00  0.00    -0.506 OA
ATOM     30  HH  TYR A   5      18.952   9.808  42.363  0.00  0.00    +0.292 HD
ENDBRANCH  26  29
ENDBRANCH  22  23
ENDBRANCH  10  22
ENDBRANCH   8  10
ENDBRANCH   5   6
BRANCH   5  31
ATOM     31  CB  VAL A   4      18.719  17.232  44.320  0.00  0.00    +0.027 C 
ATOM     32  CG2 VAL A   4      17.252  17.342  44.695  0.00  0.00    +0.002 C 
ATOM     33  CG1 VAL A   4      19.158  18.463  43.543  0.00  0.00    +0.002 C 
ENDBRANCH   5  31
ENDBRANCH   2   5
BRANCH   1  34
ATOM     34  CA  GLY A   3      16.974  12.845  44.247  0.00  0.00    +0.176 C 
BRANCH  34  37
ATOM     35  C   PRO A   2      14.631  13.448  44.152  0.00  0.00    +0.241 C 
ATOM     36  O   PRO A   2      14.807  14.436  44.898  0.00  0.00    -0.273 OA
ATOM     37  N   GLY A   3      15.591  12.572  43.866  0.00  0.00    -0.295 N 
ATOM     38  H   GLY A   3      15.355  11.689  43.369  0.00  0.00    +0.150 HD
BRANCH  35  45
ATOM     39  C   ARG A   1      11.911  13.156  45.555  0.00  0.00    +0.241 C 
ATOM     40  O   ARG A   1      12.571  12.250  46.038  0.00  0.00    -0.273 OA
ATOM     41  N   PRO A   2      12.151  13.663  44.334  0.00  0.00    -0.272 N 
ATOM     42  CD  PRO A   2      11.371  14.727  43.685  0.00  0.00    +0.094 C 
ATOM     43  CG  PRO A   2      11.782  14.635  42.265  0.00  0.00    +0.024 C 
ATOM     44  CB  PRO A   2      13.168  14.094  42.263  0.00  0.00    +0.031 C 
ATOM     45  CA  PRO A   2      13.271  13.211  43.499  0.00  0.00    +0.152 C 
BRANCH  39  46
ATOM     46  CA  ARG A   1      10.744  13.750  46.332  0.00  0.00    +0.145 C 
BRANCH  46  47
ATOM     47  N   ARG A   1       9.513  13.150  45.818  0.00  0.00    -0.238 NA
ATOM     48  H   ARG A   1       9.504  12.131  45.611  0.00  0.00    +0.142 HD
ENDBRANCH  46  47
BRANCH  46  49
ATOM     49  CB  ARG A   1      10.909  13.460  47.829  0.00  0.00    +0.030 C 
BRANCH  49  50
ATOM     50  CG  ARG A   1       9.924  14.192  48.735  0.00  0.00    +0.045 C 
BRANCH  50  51
ATOM     51  CD  ARG A   1      10.191  15.695  48.785  0.00  0.00    +0.174 C 
BRANCH  51  52
ATOM     52  NE  ARG A   1       9.592  16.294  49.990  0.00  0.00    -0.265 N 
ATOM     53  HE  ARG A   1       8.897  15.721  50.510  0.00  0.00    +0.259 HD
ATOM     54  CZ  ARG A   1       9.863  17.504  50.470  0.00  0.00    +0.342 C 
ATOM     55  NH2 ARG A   1       9.263  17.927  51.582  0.00  0.00    -0.292 N 
ATOM     56 HH21 ARG A   1       8.584  17.311  52.073  0.00  0.00    +0.255 HD
ATOM     57 HH22 ARG A   1       9.474  18.873  51.959  0.00  0.00    +0.255 HD
ATOM     58  NH1 ARG A   1      10.714  18.301  49.858  0.00  0.00    -0.292 N 
ATOM     59 HH11 ARG A   1      10.915  19.244  50.247  0.00  0.00    +0.255 HD
ATOM     60 HH12 ARG A   1      11.185  17.987  48.986  0.00  0.00    +0.255 HD
ENDBRANCH  51  52
ENDBRANCH  50  51
ENDBRANCH  49  50
ENDBRANCH  46  49
ENDBRANCH  39  46
ENDBRANCH  35  45
ENDBRANCH  34  37
ENDBRANCH   1  34
TORSDOF 21
REMARK  Name = ../refined-set-2016/4crb/4crb_pocket.pdb
REMARK  246 active torsions:
REMARK  status: ('A' for Active; 'I' for Inactive)
REMARK    1  A    between atoms: _1  and  _5
REMARK    2  A    between atoms: _5  and  _6
REMARK    3  A    between atoms: _5  and  _8
REMARK    4  A    between atoms: _8  and  _9
REMARK    5  A    between atoms: _12  and  _14
REMARK    6  A    between atoms: _14  and  _15
REMARK    7  A    between atoms: _14  and  _17
REMARK    8  A    between atoms: _20  and  _22
REMARK    9  A    between atoms: _22  and  _23
REMARK   10  A    between atoms: _22  and  _25
REMARK   11  A    between atoms: _25  and  _26
REMARK   12  A    between atoms: _29  and  _31
REMARK   13  A    between atoms: _31  and  _32
REMARK   14  A    between atoms: _31  and  _34
REMARK   15  A    between atoms: _34  and  _35
REMARK   16  A    between atoms: _38  and  _40
REMARK   17  A    between atoms: _40  and  _41
REMARK   18  A    between atoms: _40  and  _43
REMARK   19  A    between atoms: _43  and  _44
REMARK   20  A    between atoms: _47  and  _49
REMARK   21  A    between atoms: _49  and  _50
REMARK   22  A    between atoms: _49  and  _52
REMARK   23  A    between atoms: _52  and  _53
REMARK   24  A    between atoms: _56  and  _58
REMARK   25  A    between atoms: _58  and  _59
REMARK   26  A    between atoms: _58  and  _61
REMARK   27  A    between atoms: _61  and  _62
REMARK   28  A    between atoms: _62  and  _63
REMARK   29  A    between atoms: _68  and  _70
REMARK   30  A    between atoms: _70  and  _71
REMARK   31  A    between atoms: _70  and  _73
REMARK   32  A    between atoms: _73  and  _74
REMARK   33  A    between atoms: _74  and  _75
REMARK   34  A    between atoms: _75  and  _76
REMARK   35  A    between atoms: _85  and  _87
REMARK   36  A    between atoms: _87  and  _88
REMARK   37  A    between atoms: _87  and  _90
REMARK   38  A    between atoms: _90  and  _91
REMARK   39  A    between atoms: _96  and  _98
REMARK   40  A    between atoms: _98  and  _99
REMARK   41  A    between atoms: _98  and  _101
REMARK   42  A    between atoms: _101  and  _102
REMARK   43  A    between atoms: _105  and  _107
REMARK   44  A    between atoms: _107  and  _108
REMARK   45  A    between atoms: _107  and  _110
REMARK   46  A    between atoms: _110  and  _111
REMARK   47  A    between atoms: _111  and  _146
REMARK   48  A    between atoms: _112  and  _114
REMARK   49  A    between atoms: _114  and  _115
REMARK   50  A    between atoms: _117  and  _119
REMARK   51  A    between atoms: _119  and  _120
REMARK   52  A    between atoms: _123  and  _125
REMARK   53  A    between atoms: _125  and  _126
REMARK   54  A    between atoms: _129  and  _131
REMARK   55  A    between atoms: _131  and  _132
REMARK   56  A    between atoms: _131  and  _134
REMARK   57  A    between atoms: _134  and  _135
REMARK   58  A    between atoms: _140  and  _142
REMARK   59  A    between atoms: _142  and  _143
REMARK   60  A    between atoms: _142  and  _145
REMARK   61  A    between atoms: _145  and  _146
REMARK   62  A    between atoms: _147  and  _149
REMARK   63  A    between atoms: _149  and  _150
REMARK   64  A    between atoms: _149  and  _152
REMARK   65  A    between atoms: _152  and  _153
REMARK   66  A    between atoms: _159  and  _161
REMARK   67  A    between atoms: _161  and  _162
REMARK   68  A    between atoms: _161  and  _164
REMARK   69  A    between atoms: _164  and  _165
REMARK   70  A    between atoms: _170  and  _171
REMARK   71  A    between atoms: _173  and  _175
REMARK   72  A    between atoms: _175  and  _176
REMARK   73  A    between atoms: _178  and  _180
REMARK   74  A    between atoms: _180  and  _181
REMARK   75  A    between atoms: _180  and  _183
REMARK   76  A    between atoms: _186  and  _188
REMARK   77  A    between atoms: _188  and  _189
REMARK   78  A    between atoms: _192  and  _194
REMARK   79  A    between atoms: _194  and  _195
REMARK   80  A    between atoms: _194  and  _197
REMARK   81  A    between atoms: _197  and  _198
REMARK   82  A    between atoms: _201  and  _203
REMARK   83  A    between atoms: _203  and  _204
REMARK   84  A    between atoms: _203  and  _206
REMARK   85  A    between atoms: _209  and  _211
REMARK   86  A    between atoms: _211  and  _212
REMARK   87  A    between atoms: _211  and  _214
REMARK   88  A    between atoms: _214  and  _215
REMARK   89  A    between atoms: _225  and  _227
REMARK   90  A    between atoms: _227  and  _228
REMARK   91  A    between atoms: _230  and  _232
REMARK   92  A    between atoms: _232  and  _233
REMARK   93  A    between atoms: _232  and  _235
REMARK   94  A    between atoms: _235  and  _236
REMARK   95  A    between atoms: _241  and  _242
REMARK   96  A    between atoms: _244  and  _246
REMARK   97  A    between atoms: _246  and  _247
REMARK   98  A    between atoms: _246  and  _249
REMARK   99  A    between atoms: _249  and  _250
REMARK  100  A    between atoms: _250  and  _251
REMARK  101  A    between atoms: _251  and  _252
REMARK  102  A    between atoms: _252  and  _253
REMARK  103  A    between atoms: _257  and  _259
REMARK  104  A    between atoms: _259  and  _260
REMARK  105  A    between atoms: _259  and  _262
REMARK  106  A    between atoms: _262  and  _263
REMARK  107  A    between atoms: _266  and  _268
REMARK  108  A    between atoms: _268  and  _269
REMARK  109  A    between atoms: _268  and  _271
REMARK  110  A    between atoms: _271  and  _272
REMARK  111  A    between atoms: _272  and  _273
REMARK  112  A    between atoms: _273  and  _274
REMARK  113  A    between atoms: _283  and  _285
REMARK  114  A    between atoms: _285  and  _286
REMARK  115  A    between atoms: _285  and  _288
REMARK  116  A    between atoms: _288  and  _289
REMARK  117  A    between atoms: _292  and  _294
REMARK  118  A    between atoms: _294  and  _295
REMARK  119  A    between atoms: _294  and  _297
REMARK  120  A    between atoms: _297  and  _298
REMARK  121  A    between atoms: _298  and  _299
REMARK  122  A    between atoms: _299  and  _300
REMARK  123  A    between atoms: _300  and  _301
REMARK  124  A    between atoms: _305  and  _307
REMARK  125  A    between atoms: _307  and  _308
REMARK  126  A    between atoms: _307  and  _310
REMARK  127  A    between atoms: _310  and  _311
REMARK  128  A    between atoms: _314  and  _316
REMARK  129  A    between atoms: _316  and  _317
REMARK  130  A    between atoms: _316  and  _319
REMARK  131  A    between atoms: _319  and  _320
REMARK  132  A    between atoms: _320  and  _321
REMARK  133  A    between atoms: _326  and  _328
REMARK  134  A    between atoms: _328  and  _329
REMARK  135  A    between atoms: _328  and  _331
REMARK  136  A    between atoms: _331  and  _332
REMARK  137  A    between atoms: _335  and  _337
REMARK  138  A    between atoms: _337  and  _338
REMARK  139  A    between atoms: _337  and  _340
REMARK  140  A    between atoms: _340  and  _341
REMARK  141  A    between atoms: _346  and  _347
REMARK  142  A    between atoms: _349  and  _351
REMARK  143  A    between atoms: _351  and  _352
REMARK  144  A    between atoms: _351  and  _354
REMARK  145  A    between atoms: _354  and  _355
REMARK  146  A    between atoms: _358  and  _360
REMARK  147  A    between atoms: _360  and  _361
REMARK  148  A    between atoms: _360  and  _363
REMARK  149  A    between atoms: _365  and  _367
REMARK  150  A    between atoms: _367  and  _368
REMARK  151  A    between atoms: _371  and  _373
REMARK  152  A    between atoms: _373  and  _374
REMARK  153  A    between atoms: _373  and  _376
REMARK  154  A    between atoms: _376  and  _377
REMARK  155  A    between atoms: _377  and  _378
REMARK  156  A    between atoms: _378  and  _379
REMARK  157  A    between atoms: _379  and  _380
REMARK  158  A    between atoms: _384  and  _386
REMARK  159  A    between atoms: _386  and  _387
REMARK  160  A    between atoms: _386  and  _389
REMARK  161  A    between atoms: _389  and  _390
REMARK  162  A    between atoms: _393  and  _395
REMARK  163  A    between atoms: _395  and  _396
REMARK  164  A    between atoms: _399  and  _401
REMARK  165  A    between atoms: _401  and  _402
REMARK  166  A    between atoms: _401  and  _404
REMARK  167  A    between atoms: _404  and  _405
REMARK  168  A    between atoms: _405  and  _519
REMARK  169  A    between atoms: _406  and  _408
REMARK  170  A    between atoms: _408  and  _409
REMARK  171  A    between atoms: _408  and  _411
REMARK  172  A    between atoms: _411  and  _412
REMARK  173  A    between atoms: _412  and  _413
REMARK  174  A    between atoms: _413  and  _414
REMARK  175  A    between atoms: _414  and  _415
REMARK  176  A    between atoms: _419  and  _421
REMARK  177  A    between atoms: _421  and  _422
REMARK  178  A    between atoms: _424  and  _426
REMARK  179  A    between atoms: _426  and  _427
REMARK  180  A    between atoms: _426  and  _429
REMARK  181  A    between atoms: _429  and  _430
REMARK  182  A    between atoms: _433  and  _435
REMARK  183  A    between atoms: _435  and  _436
REMARK  184  A    between atoms: _435  and  _438
REMARK  185  A    between atoms: _438  and  _439
REMARK  186  A    between atoms: _441  and  _443
REMARK  187  A    between atoms: _443  and  _444
REMARK  188  A    between atoms: _446  and  _448
REMARK  189  A    between atoms: _448  and  _449
REMARK  190  A    between atoms: _451  and  _453
REMARK  191  A    between atoms: _453  and  _454
REMARK  192  A    between atoms: _453  and  _456
REMARK  193  A    between atoms: _456  and  _457
REMARK  194  A    between atoms: _460  and  _462
REMARK  195  A    between atoms: _462  and  _463
REMARK  196  A    between atoms: _462  and  _465
REMARK  197  A    between atoms: _465  and  _466
REMARK  198  A    between atoms: _469  and  _471
REMARK  199  A    between atoms: _471  and  _472
REMARK  200  A    between atoms: _471  and  _474
REMARK  201  A    between atoms: _474  and  _475
REMARK  202  A    between atoms: _477  and  _479
REMARK  203  A    between atoms: _479  and  _480
REMARK  204  A    between atoms: _479  and  _482
REMARK  205  A    between atoms: _482  and  _483
REMARK  206  A    between atoms: _493  and  _495
REMARK  207  A    between atoms: _495  and  _496
REMARK  208  A    between atoms: _498  and  _500
REMARK  209  A    between atoms: _500  and  _501
REMARK  210  A    between atoms: _500  and  _503
REMARK  211  A    between atoms: _503  and  _504
REMARK  212  A    between atoms: _504  and  _505
REMARK  213  A    between atoms: _508  and  _510
REMARK  214  A    between atoms: _510  and  _511
REMARK  215  A    between atoms: _513  and  _515
REMARK  216  A    between atoms: _515  and  _516
REMARK  217  A    between atoms: _515  and  _518
REMARK  218  A    between atoms: _518  and  _519
REMARK  219  A    between atoms: _520  and  _522
REMARK  220  A    between atoms: _522  and  _523
REMARK  221  A    between atoms: _526  and  _528
REMARK  222  A    between atoms: _528  and  _529
REMARK  223  A    between atoms: _528  and  _531
REMARK  224  A    between atoms: _531  and  _532
REMARK  225  A    between atoms: _532  and  _533
REMARK  226  A    between atoms: _538  and  _540
REMARK  227  A    between atoms: _540  and  _541
REMARK  228  A    between atoms: _540  and  _543
REMARK  229  A    between atoms: _543  and  _544
REMARK  230  A    between atoms: _544  and  _545
REMARK  231  A    between atoms: _545  and  _546
REMARK  232  A    between atoms: _556  and  _557
REMARK  233  A    between atoms: _562  and  _564
REMARK  234  A    between atoms: _564  and  _565
REMARK  235  A    between atoms: _567  and  _569
REMARK  236  A    between atoms: _569  and  _570
REMARK  237  A    between atoms: _569  and  _572
REMARK  238  A    between atoms: _575  and  _577
REMARK  239  A    between atoms: _577  and  _578
REMARK  240  A    between atoms: _577  and  _580
REMARK  241  A    between atoms: _580  and  _581
REMARK  242  A    between atoms: _586  and  _587
REMARK  243  A    between atoms: _589  and  _591
REMARK  244  A    between atoms: _591  and  _592
REMARK  245  A    between atoms: _591  and  _594
REMARK  246  A    between atoms: _594  and  _595
REMARK                            x       y       z     vdW  Elec       q    Type
REMARK                         _______ _______ _______ _____ _____    ______ ____
ROOT
ATOM      1  O   HOH     1      33.613  12.314  57.892  0.00  0.00    +0.000 OA
ENDROOT
TORSDOF 0
REMARK  Name = ../refined-set-2016/4crb/4crb_pocket.pdb
REMARK  246 active torsions:
REMARK  status: ('A' for Active; 'I' for Inactive)
REMARK    1  A    between atoms: _1  and  _5
REMARK    2  A    between atoms: _5  and  _6
REMARK    3  A    between atoms: _5  and  _8
REMARK    4  A    between atoms: _8  and  _9
REMARK    5  A    between atoms: _12  and  _14
REMARK    6  A    between atoms: _14  and  _15
REMARK    7  A    between atoms: _14  and  _17
REMARK    8  A    between atoms: _20  and  _22
REMARK    9  A    between atoms: _22  and  _23
REMARK   10  A    between atoms: _22  and  _25
REMARK   11  A    between atoms: _25  and  _26
REMARK   12  A    between atoms: _29  and  _31
REMARK   13  A    between atoms: _31  and  _32
REMARK   14  A    between atoms: _31  and  _34
REMARK   15  A    between atoms: _34  and  _35
REMARK   16  A    between atoms: _38  and  _40
REMARK   17  A    between atoms: _40  and  _41
REMARK   18  A    between atoms: _40  and  _43
REMARK   19  A    between atoms: _43  and  _44
REMARK   20  A    between atoms: _47  and  _49
REMARK   21  A    between atoms: _49  and  _50
REMARK   22  A    between atoms: _49  and  _52
REMARK   23  A    between atoms: _52  and  _53
REMARK   24  A    between atoms: _56  and  _58
REMARK   25  A    between atoms: _58  and  _59
REMARK   26  A    between atoms: _58  and  _61
REMARK   27  A    between atoms: _61  and  _62
REMARK   28  A    between atoms: _62  and  _63
REMARK   29  A    between atoms: _68  and  _70
REMARK   30  A    between atoms: _70  and  _71
REMARK   31  A    between atoms: _70  and  _73
REMARK   32  A    between atoms: _73  and  _74
REMARK   33  A    between atoms: _74  and  _75
REMARK   34  A    between atoms: _75  and  _76
REMARK   35  A    between atoms: _85  and  _87
REMARK   36  A    between atoms: _87  and  _88
REMARK   37  A    between atoms: _87  and  _90
REMARK   38  A    between atoms: _90  and  _91
REMARK   39  A    between atoms: _96  and  _98
REMARK   40  A    between atoms: _98  and  _99
REMARK   41  A    between atoms: _98  and  _101
REMARK   42  A    between atoms: _101  and  _102
REMARK   43  A    between atoms: _105  and  _107
REMARK   44  A    between atoms: _107  and  _108
REMARK   45  A    between atoms: _107  and  _110
REMARK   46  A    between atoms: _110  and  _111
REMARK   47  A    between atoms: _111  and  _146
REMARK   48  A    between atoms: _112  and  _114
REMARK   49  A    between atoms: _114  and  _115
REMARK   50  A    between atoms: _117  and  _119
REMARK   51  A    between atoms: _119  and  _120
REMARK   52  A    between atoms: _123  and  _125
REMARK   53  A    between atoms: _125  and  _126
REMARK   54  A    between atoms: _129  and  _131
REMARK   55  A    between atoms: _131  and  _132
REMARK   56  A    between atoms: _131  and  _134
REMARK   57  A    between atoms: _134  and  _135
REMARK   58  A    between atoms: _140  and  _142
REMARK   59  A    between atoms: _142  and  _143
REMARK   60  A    between atoms: _142  and  _145
REMARK   61  A    between atoms: _145  and  _146
REMARK   62  A    between atoms: _147  and  _149
REMARK   63  A    between atoms: _149  and  _150
REMARK   64  A    between atoms: _149  and  _152
REMARK   65  A    between atoms: _152  and  _153
REMARK   66  A    between atoms: _159  and  _161
REMARK   67  A    between atoms: _161  and  _162
REMARK   68  A    between atoms: _161  and  _164
REMARK   69  A    between atoms: _164  and  _165
REMARK   70  A    between atoms: _170  and  _171
REMARK   71  A    between atoms: _173  and  _175
REMARK   72  A    between atoms: _175  and  _176
REMARK   73  A    between atoms: _178  and  _180
REMARK   74  A    between atoms: _180  and  _181
REMARK   75  A    between atoms: _180  and  _183
REMARK   76  A    between atoms: _186  and  _188
REMARK   77  A    between atoms: _188  and  _189
REMARK   78  A    between atoms: _192  and  _194
REMARK   79  A    between atoms: _194  and  _195
REMARK   80  A    between atoms: _194  and  _197
REMARK   81  A    between atoms: _197  and  _198
REMARK   82  A    between atoms: _201  and  _203
REMARK   83  A    between atoms: _203  and  _204
REMARK   84  A    between atoms: _203  and  _206
REMARK   85  A    between atoms: _209  and  _211
REMARK   86  A    between atoms: _211  and  _212
REMARK   87  A    between atoms: _211  and  _214
REMARK   88  A    between atoms: _214  and  _215
REMARK   89  A    between atoms: _225  and  _227
REMARK   90  A    between atoms: _227  and  _228
REMARK   91  A    between atoms: _230  and  _232
REMARK   92  A    between atoms: _232  and  _233
REMARK   93  A    between atoms: _232  and  _235
REMARK   94  A    between atoms: _235  and  _236
REMARK   95  A    between atoms: _241  and  _242
REMARK   96  A    between atoms: _244  and  _246
REMARK   97  A    between atoms: _246  and  _247
REMARK   98  A    between atoms: _246  and  _249
REMARK   99  A    between atoms: _249  and  _250
REMARK  100  A    between atoms: _250  and  _251
REMARK  101  A    between atoms: _251  and  _252
REMARK  102  A    between atoms: _252  and  _253
REMARK  103  A    between atoms: _257  and  _259
REMARK  104  A    between atoms: _259  and  _260
REMARK  105  A    between atoms: _259  and  _262
REMARK  106  A    between atoms: _262  and  _263
REMARK  107  A    between atoms: _266  and  _268
REMARK  108  A    between atoms: _268  and  _269
REMARK  109  A    between atoms: _268  and  _271
REMARK  110  A    between atoms: _271  and  _272
REMARK  111  A    between atoms: _272  and  _273
REMARK  112  A    between atoms: _273  and  _274
REMARK  113  A    between atoms: _283  and  _285
REMARK  114  A    between atoms: _285  and  _286
REMARK  115  A    between atoms: _285  and  _288
REMARK  116  A    between atoms: _288  and  _289
REMARK  117  A    between atoms: _292  and  _294
REMARK  118  A    between atoms: _294  and  _295
REMARK  119  A    between atoms: _294  and  _297
REMARK  120  A    between atoms: _297  and  _298
REMARK  121  A    between atoms: _298  and  _299
REMARK  122  A    between atoms: _299  and  _300
REMARK  123  A    between atoms: _300  and  _301
REMARK  124  A    between atoms: _305  and  _307
REMARK  125  A    between atoms: _307  and  _308
REMARK  126  A    between atoms: _307  and  _310
REMARK  127  A    between atoms: _310  and  _311
REMARK  128  A    between atoms: _314  and  _316
REMARK  129  A    between atoms: _316  and  _317
REMARK  130  A    between atoms: _316  and  _319
REMARK  131  A    between atoms: _319  and  _320
REMARK  132  A    between atoms: _320  and  _321
REMARK  133  A    between atoms: _326  and  _328
REMARK  134  A    between atoms: _328  and  _329
REMARK  135  A    between atoms: _328  and  _331
REMARK  136  A    between atoms: _331  and  _332
REMARK  137  A    between atoms: _335  and  _337
REMARK  138  A    between atoms: _337  and  _338
REMARK  139  A    between atoms: _337  and  _340
REMARK  140  A    between atoms: _340  and  _341
REMARK  141  A    between atoms: _346  and  _347
REMARK  142  A    between atoms: _349  and  _351
REMARK  143  A    between atoms: _351  and  _352
REMARK  144  A    between atoms: _351  and  _354
REMARK  145  A    between atoms: _354  and  _355
REMARK  146  A    between atoms: _358  and  _360
REMARK  147  A    between atoms: _360  and  _361
REMARK  148  A    between atoms: _360  and  _363
REMARK  149  A    between atoms: _365  and  _367
REMARK  150  A    between atoms: _367  and  _368
REMARK  151  A    between atoms: _371  and  _373
REMARK  152  A    between atoms: _373  and  _374
REMARK  153  A    between atoms: _373  and  _376
REMARK  154  A    between atoms: _376  and  _377
REMARK  155  A    between atoms: _377  and  _378
REMARK  156  A    between atoms: _378  and  _379
REMARK  157  A    between atoms: _379  and  _380
REMARK  158  A    between atoms: _384  and  _386
REMARK  159  A    between atoms: _386  and  _387
REMARK  160  A    between atoms: _386  and  _389
REMARK  161  A    between atoms: _389  and  _390
REMARK  162  A    between atoms: _393  and  _395
REMARK  163  A    between atoms: _395  and  _396
REMARK  164  A    between atoms: _399  and  _401
REMARK  165  A    between atoms: _401  and  _402
REMARK  166  A    between atoms: _401  and  _404
REMARK  167  A    between atoms: _404  and  _405
REMARK  168  A    between atoms: _405  and  _519
REMARK  169  A    between atoms: _406  and  _408
REMARK  170  A    between atoms: _408  and  _409
REMARK  171  A    between atoms: _408  and  _411
REMARK  172  A    between atoms: _411  and  _412
REMARK  173  A    between atoms: _412  and  _413
REMARK  174  A    between atoms: _413  and  _414
REMARK  175  A    between atoms: _414  and  _415
REMARK  176  A    between atoms: _419  and  _421
REMARK  177  A    between atoms: _421  and  _422
REMARK  178  A    between atoms: _424  and  _426
REMARK  179  A    between atoms: _426  and  _427
REMARK  180  A    between atoms: _426  and  _429
REMARK  181  A    between atoms: _429  and  _430
REMARK  182  A    between atoms: _433  and  _435
REMARK  183  A    between atoms: _435  and  _436
REMARK  184  A    between atoms: _435  and  _438
REMARK  185  A    between atoms: _438  and  _439
REMARK  186  A    between atoms: _441  and  _443
REMARK  187  A    between atoms: _443  and  _444
REMARK  188  A    between atoms: _446  and  _448
REMARK  189  A    between atoms: _448  and  _449
REMARK  190  A    between atoms: _451  and  _453
REMARK  191  A    between atoms: _453  and  _454
REMARK  192  A    between atoms: _453  and  _456
REMARK  193  A    between atoms: _456  and  _457
REMARK  194  A    between atoms: _460  and  _462
REMARK  195  A    between atoms: _462  and  _463
REMARK  196  A    between atoms: _462  and  _465
REMARK  197  A    between atoms: _465  and  _466
REMARK  198  A    between atoms: _469  and  _471
REMARK  199  A    between atoms: _471  and  _472
REMARK  200  A    between atoms: _471  and  _474
REMARK  201  A    between atoms: _474  and  _475
REMARK  202  A    between atoms: _477  and  _479
REMARK  203  A    between atoms: _479  and  _480
REMARK  204  A    between atoms: _479  and  _482
REMARK  205  A    between atoms: _482  and  _483
REMARK  206  A    between atoms: _493  and  _495
REMARK  207  A    between atoms: _495  and  _496
REMARK  208  A    between atoms: _498  and  _500
REMARK  209  A    between atoms: _500  and  _501
REMARK  210  A    between atoms: _500  and  _503
REMARK  211  A    between atoms: _503  and  _504
REMARK  212  A    between atoms: _504  and  _505
REMARK  213  A    between atoms: _508  and  _510
REMARK  214  A    between atoms: _510  and  _511
REMARK  215  A    between atoms: _513  and  _515
REMARK  216  A    between atoms: _515  and  _516
REMARK  217  A    between atoms: _515  and  _518
REMARK  218  A    between atoms: _518  and  _519
REMARK  219  A    between atoms: _520  and  _522
REMARK  220  A    between atoms: _522  and  _523
REMARK  221  A    between atoms: _526  and  _528
REMARK  222  A    between atoms: _528  and  _529
REMARK  223  A    between atoms: _528  and  _531
REMARK  224  A    between atoms: _531  and  _532
REMARK  225  A    between atoms: _532  and  _533
REMARK  226  A    between atoms: _538  and  _540
REMARK  227  A    between atoms: _540  and  _541
REMARK  228  A    between atoms: _540  and  _543
REMARK  229  A    between atoms: _543  and  _544
REMARK  230  A    between atoms: _544  and  _545
REMARK  231  A    between atoms: _545  and  _546
REMARK  232  A    between atoms: _556  and  _557
REMARK  233  A    between atoms: _562  and  _564
REMARK  234  A    between atoms: _564  and  _565
REMARK  235  A    between atoms: _567  and  _569
REMARK  236  A    between atoms: _569  and  _570
REMARK  237  A    between atoms: _569  and  _572
REMARK  238  A    between atoms: _575  and  _577
REMARK  239  A    between atoms: _577  and  _578
REMARK  240  A    between atoms: _577  and  _580
REMARK  241  A    between atoms: _580  and  _581
REMARK  242  A    between atoms: _586  and  _587
REMARK  243  A    between atoms: _589  and  _591
REMARK  244  A    between atoms: _591  and  _592
REMARK  245  A    between atoms: _591  and  _594
REMARK  246  A    between atoms: _594  and  _595
REMARK                            x       y       z     vdW  Elec       q    Type
REMARK                         _______ _______ _______ _____ _____    ______ ____
ROOT
ATOM      1  O   HOH     1      27.974   6.113  45.282  0.00  0.00    +0.000 OA
ENDROOT
TORSDOF 0
REMARK  Name = ../refined-set-2016/4crb/4crb_pocket.pdb
REMARK  246 active torsions:
REMARK  status: ('A' for Active; 'I' for Inactive)
REMARK    1  A    between atoms: _1  and  _5
REMARK    2  A    between atoms: _5  and  _6
REMARK    3  A    between atoms: _5  and  _8
REMARK    4  A    between atoms: _8  and  _9
REMARK    5  A    between atoms: _12  and  _14
REMARK    6  A    between atoms: _14  and  _15
REMARK    7  A    between atoms: _14  and  _17
REMARK    8  A    between atoms: _20  and  _22
REMARK    9  A    between atoms: _22  and  _23
REMARK   10  A    between atoms: _22  and  _25
REMARK   11  A    between atoms: _25  and  _26
REMARK   12  A    between atoms: _29  and  _31
REMARK   13  A    between atoms: _31  and  _32
REMARK   14  A    between atoms: _31  and  _34
REMARK   15  A    between atoms: _34  and  _35
REMARK   16  A    between atoms: _38  and  _40
REMARK   17  A    between atoms: _40  and  _41
REMARK   18  A    between atoms: _40  and  _43
REMARK   19  A    between atoms: _43  and  _44
REMARK   20  A    between atoms: _47  and  _49
REMARK   21  A    between atoms: _49  and  _50
REMARK   22  A    between atoms: _49  and  _52
REMARK   23  A    between atoms: _52  and  _53
REMARK   24  A    between atoms: _56  and  _58
REMARK   25  A    between atoms: _58  and  _59
REMARK   26  A    between atoms: _58  and  _61
REMARK   27  A    between atoms: _61  and  _62
REMARK   28  A    between atoms: _62  and  _63
REMARK   29  A    between atoms: _68  and  _70
REMARK   30  A    between atoms: _70  and  _71
REMARK   31  A    between atoms: _70  and  _73
REMARK   32  A    between atoms: _73  and  _74
REMARK   33  A    between atoms: _74  and  _75
REMARK   34  A    between atoms: _75  and  _76
REMARK   35  A    between atoms: _85  and  _87
REMARK   36  A    between atoms: _87  and  _88
REMARK   37  A    between atoms: _87  and  _90
REMARK   38  A    between atoms: _90  and  _91
REMARK   39  A    between atoms: _96  and  _98
REMARK   40  A    between atoms: _98  and  _99
REMARK   41  A    between atoms: _98  and  _101
REMARK   42  A    between atoms: _101  and  _102
REMARK   43  A    between atoms: _105  and  _107
REMARK   44  A    between atoms: _107  and  _108
REMARK   45  A    between atoms: _107  and  _110
REMARK   46  A    between atoms: _110  and  _111
REMARK   47  A    between atoms: _111  and  _146
REMARK   48  A    between atoms: _112  and  _114
REMARK   49  A    between atoms: _114  and  _115
REMARK   50  A    between atoms: _117  and  _119
REMARK   51  A    between atoms: _119  and  _120
REMARK   52  A    between atoms: _123  and  _125
REMARK   53  A    between atoms: _125  and  _126
REMARK   54  A    between atoms: _129  and  _131
REMARK   55  A    between atoms: _131  and  _132
REMARK   56  A    between atoms: _131  and  _134
REMARK   57  A    between atoms: _134  and  _135
REMARK   58  A    between atoms: _140  and  _142
REMARK   59  A    between atoms: _142  and  _143
REMARK   60  A    between atoms: _142  and  _145
REMARK   61  A    between atoms: _145  and  _146
REMARK   62  A    between atoms: _147  and  _149
REMARK   63  A    between atoms: _149  and  _150
REMARK   64  A    between atoms: _149  and  _152
REMARK   65  A    between atoms: _152  and  _153
REMARK   66  A    between atoms: _159  and  _161
REMARK   67  A    between atoms: _161  and  _162
REMARK   68  A    between atoms: _161  and  _164
REMARK   69  A    between atoms: _164  and  _165
REMARK   70  A    between atoms: _170  and  _171
REMARK   71  A    between atoms: _173  and  _175
REMARK   72  A    between atoms: _175  and  _176
REMARK   73  A    between atoms: _178  and  _180
REMARK   74  A    between atoms: _180  and  _181
REMARK   75  A    between atoms: _180  and  _183
REMARK   76  A    between atoms: _186  and  _188
REMARK   77  A    between atoms: _188  and  _189
REMARK   78  A    between atoms: _192  and  _194
REMARK   79  A    between atoms: _194  and  _195
REMARK   80  A    between atoms: _194  and  _197
REMARK   81  A    between atoms: _197  and  _198
REMARK   82  A    between atoms: _201  and  _203
REMARK   83  A    between atoms: _203  and  _204
REMARK   84  A    between atoms: _203  and  _206
REMARK   85  A    between atoms: _209  and  _211
REMARK   86  A    between atoms: _211  and  _212
REMARK   87  A    between atoms: _211  and  _214
REMARK   88  A    between atoms: _214  and  _215
REMARK   89  A    between atoms: _225  and  _227
REMARK   90  A    between atoms: _227  and  _228
REMARK   91  A    between atoms: _230  and  _232
REMARK   92  A    between atoms: _232  and  _233
REMARK   93  A    between atoms: _232  and  _235
REMARK   94  A    between atoms: _235  and  _236
REMARK   95  A    between atoms: _241  and  _242
REMARK   96  A    between atoms: _244  and  _246
REMARK   97  A    between atoms: _246  and  _247
REMARK   98  A    between atoms: _246  and  _249
REMARK   99  A    between atoms: _249  and  _250
REMARK  100  A    between atoms: _250  and  _251
REMARK  101  A    between atoms: _251  and  _252
REMARK  102  A    between atoms: _252  and  _253
REMARK  103  A    between atoms: _257  and  _259
REMARK  104  A    between atoms: _259  and  _260
REMARK  105  A    between atoms: _259  and  _262
REMARK  106  A    between atoms: _262  and  _263
REMARK  107  A    between atoms: _266  and  _268
REMARK  108  A    between atoms: _268  and  _269
REMARK  109  A    between atoms: _268  and  _271
REMARK  110  A    between atoms: _271  and  _272
REMARK  111  A    between atoms: _272  and  _273
REMARK  112  A    between atoms: _273  and  _274
REMARK  113  A    between atoms: _283  and  _285
REMARK  114  A    between atoms: _285  and  _286
REMARK  115  A    between atoms: _285  and  _288
REMARK  116  A    between atoms: _288  and  _289
REMARK  117  A    between atoms: _292  and  _294
REMARK  118  A    between atoms: _294  and  _295
REMARK  119  A    between atoms: _294  and  _297
REMARK  120  A    between atoms: _297  and  _298
REMARK  121  A    between atoms: _298  and  _299
REMARK  122  A    between atoms: _299  and  _300
REMARK  123  A    between atoms: _300  and  _301
REMARK  124  A    between atoms: _305  and  _307
REMARK  125  A    between atoms: _307  and  _308
REMARK  126  A    between atoms: _307  and  _310
REMARK  127  A    between atoms: _310  and  _311
REMARK  128  A    between atoms: _314  and  _316
REMARK  129  A    between atoms: _316  and  _317
REMARK  130  A    between atoms: _316  and  _319
REMARK  131  A    between atoms: _319  and  _320
REMARK  132  A    between atoms: _320  and  _321
REMARK  133  A    between atoms: _326  and  _328
REMARK  134  A    between atoms: _328  and  _329
REMARK  135  A    between atoms: _328  and  _331
REMARK  136  A    between atoms: _331  and  _332
REMARK  137  A    between atoms: _335  and  _337
REMARK  138  A    between atoms: _337  and  _338
REMARK  139  A    between atoms: _337  and  _340
REMARK  140  A    between atoms: _340  and  _341
REMARK  141  A    between atoms: _346  and  _347
REMARK  142  A    between atoms: _349  and  _351
REMARK  143  A    between atoms: _351  and  _352
REMARK  144  A    between atoms: _351  and  _354
REMARK  145  A    between atoms: _354  and  _355
REMARK  146  A    between atoms: _358  and  _360
REMARK  147  A    between atoms: _360  and  _361
REMARK  148  A    between atoms: _360  and  _363
REMARK  149  A    between atoms: _365  and  _367
REMARK  150  A    between atoms: _367  and  _368
REMARK  151  A    between atoms: _371  and  _373
REMARK  152  A    between atoms: _373  and  _374
REMARK  153  A    between atoms: _373  and  _376
REMARK  154  A    between atoms: _376  and  _377
REMARK  155  A    between atoms: _377  and  _378
REMARK  156  A    between atoms: _378  and  _379
REMARK  157  A    between atoms: _379  and  _380
REMARK  158  A    between atoms: _384  and  _386
REMARK  159  A    between atoms: _386  and  _387
REMARK  160  A    between atoms: _386  and  _389
REMARK  161  A    between atoms: _389  and  _390
REMARK  162  A    between atoms: _393  and  _395
REMARK  163  A    between atoms: _395  and  _396
REMARK  164  A    between atoms: _399  and  _401
REMARK  165  A    between atoms: _401  and  _402
REMARK  166  A    between atoms: _401  and  _404
REMARK  167  A    between atoms: _404  and  _405
REMARK  168  A    between atoms: _405  and  _519
REMARK  169  A    between atoms: _406  and  _408
REMARK  170  A    between atoms: _408  and  _409
REMARK  171  A    between atoms: _408  and  _411
REMARK  172  A    between atoms: _411  and  _412
REMARK  173  A    between atoms: _412  and  _413
REMARK  174  A    between atoms: _413  and  _414
REMARK  175  A    between atoms: _414  and  _415
REMARK  176  A    between atoms: _419  and  _421
REMARK  177  A    between atoms: _421  and  _422
REMARK  178  A    between atoms: _424  and  _426
REMARK  179  A    between atoms: _426  and  _427
REMARK  180  A    between atoms: _426  and  _429
REMARK  181  A    between atoms: _429  and  _430
REMARK  182  A    between atoms: _433  and  _435
REMARK  183  A    between atoms: _435  and  _436
REMARK  184  A    between atoms: _435  and  _438
REMARK  185  A    between atoms: _438  and  _439
REMARK  186  A    between atoms: _441  and  _443
REMARK  187  A    between atoms: _443  and  _444
REMARK  188  A    between atoms: _446  and  _448
REMARK  189  A    between atoms: _448  and  _449
REMARK  190  A    between atoms: _451  and  _453
REMARK  191  A    between atoms: _453  and  _454
REMARK  192  A    between atoms: _453  and  _456
REMARK  193  A    between atoms: _456  and  _457
REMARK  194  A    between atoms: _460  and  _462
REMARK  195  A    between atoms: _462  and  _463
REMARK  196  A    between atoms: _462  and  _465
REMARK  197  A    between atoms: _465  and  _466
REMARK  198  A    between atoms: _469  and  _471
REMARK  199  A    between atoms: _471  and  _472
REMARK  200  A    between atoms: _471  and  _474
REMARK  201  A    between atoms: _474  and  _475
REMARK  202  A    between atoms: _477  and  _479
REMARK  203  A    between atoms: _479  and  _480
REMARK  204  A    between atoms: _479  and  _482
REMARK  205  A    between atoms: _482  and  _483
REMARK  206  A    between atoms: _493  and  _495
REMARK  207  A    between atoms: _495  and  _496
REMARK  208  A    between atoms: _498  and  _500
REMARK  209  A    between atoms: _500  and  _501
REMARK  210  A    between atoms: _500  and  _503
REMARK  211  A    between atoms: _503  and  _504
REMARK  212  A    between atoms: _504  and  _505
REMARK  213  A    between atoms: _508  and  _510
REMARK  214  A    between atoms: _510  and  _511
REMARK  215  A    between atoms: _513  and  _515
REMARK  216  A    between atoms: _515  and  _516
REMARK  217  A    between atoms: _515  and  _518
REMARK  218  A    between atoms: _518  and  _519
REMARK  219  A    between atoms: _520  and  _522
REMARK  220  A    between atoms: _522  and  _523
REMARK  221  A    between atoms: _526  and  _528
REMARK  222  A    between atoms: _528  and  _529
REMARK  223  A    between atoms: _528  and  _531
REMARK  224  A    between atoms: _531  and  _532
REMARK  225  A    between atoms: _532  and  _533
REMARK  226  A    between atoms: _538  and  _540
REMARK  227  A    between atoms: _540  and  _541
REMARK  228  A    between atoms: _540  and  _543
REMARK  229  A    between atoms: _543  and  _544
REMARK  230  A    between atoms: _544  and  _545
REMARK  231  A    between atoms: _545  and  _546
REMARK  232  A    between atoms: _556  and  _557
REMARK  233  A    between atoms: _562  and  _564
REMARK  234  A    between atoms: _564  and  _565
REMARK  235  A    between atoms: _567  and  _569
REMARK  236  A    between atoms: _569  and  _570
REMARK  237  A    between atoms: _569  and  _572
REMARK  238  A    between atoms: _575  and  _577
REMARK  239  A    between atoms: _577  and  _578
REMARK  240  A    between atoms: _577  and  _580
REMARK  241  A    between atoms: _580  and  _581
REMARK  242  A    between atoms: _586  and  _587
REMARK  243  A    between atoms: _589  and  _591
REMARK  244  A    between atoms: _591  and  _592
REMARK  245  A    between atoms: _591  and  _594
REMARK  246  A    between atoms: _594  and  _595
REMARK                            x       y       z     vdW  Elec       q    Type
REMARK                         _______ _______ _______ _____ _____    ______ ____
ROOT
ATOM      1  O   HOH     1      31.837   1.868  56.060  0.00  0.00    +0.000 OA
ENDROOT
TORSDOF 0
REMARK  Name = ../refined-set-2016/4crb/4crb_pocket.pdb
REMARK  246 active torsions:
REMARK  status: ('A' for Active; 'I' for Inactive)
REMARK    1  A    between atoms: _1  and  _5
REMARK    2  A    between atoms: _5  and  _6
REMARK    3  A    between atoms: _5  and  _8
REMARK    4  A    between atoms: _8  and  _9
REMARK    5  A    between atoms: _12  and  _14
REMARK    6  A    between atoms: _14  and  _15
REMARK    7  A    between atoms: _14  and  _17
REMARK    8  A    between atoms: _20  and  _22
REMARK    9  A    between atoms: _22  and  _23
REMARK   10  A    between atoms: _22  and  _25
REMARK   11  A    between atoms: _25  and  _26
REMARK   12  A    between atoms: _29  and  _31
REMARK   13  A    between atoms: _31  and  _32
REMARK   14  A    between atoms: _31  and  _34
REMARK   15  A    between atoms: _34  and  _35
REMARK   16  A    between atoms: _38  and  _40
REMARK   17  A    between atoms: _40  and  _41
REMARK   18  A    between atoms: _40  and  _43
REMARK   19  A    between atoms: _43  and  _44
REMARK   20  A    between atoms: _47  and  _49
REMARK   21  A    between atoms: _49  and  _50
REMARK   22  A    between atoms: _49  and  _52
REMARK   23  A    between atoms: _52  and  _53
REMARK   24  A    between atoms: _56  and  _58
REMARK   25  A    between atoms: _58  and  _59
REMARK   26  A    between atoms: _58  and  _61
REMARK   27  A    between atoms: _61  and  _62
REMARK   28  A    between atoms: _62  and  _63
REMARK   29  A    between atoms: _68  and  _70
REMARK   30  A    between atoms: _70  and  _71
REMARK   31  A    between atoms: _70  and  _73
REMARK   32  A    between atoms: _73  and  _74
REMARK   33  A    between atoms: _74  and  _75
REMARK   34  A    between atoms: _75  and  _76
REMARK   35  A    between atoms: _85  and  _87
REMARK   36  A    between atoms: _87  and  _88
REMARK   37  A    between atoms: _87  and  _90
REMARK   38  A    between atoms: _90  and  _91
REMARK   39  A    between atoms: _96  and  _98
REMARK   40  A    between atoms: _98  and  _99
REMARK   41  A    between atoms: _98  and  _101
REMARK   42  A    between atoms: _101  and  _102
REMARK   43  A    between atoms: _105  and  _107
REMARK   44  A    between atoms: _107  and  _108
REMARK   45  A    between atoms: _107  and  _110
REMARK   46  A    between atoms: _110  and  _111
REMARK   47  A    between atoms: _111  and  _146
REMARK   48  A    between atoms: _112  and  _114
REMARK   49  A    between atoms: _114  and  _115
REMARK   50  A    between atoms: _117  and  _119
REMARK   51  A    between atoms: _119  and  _120
REMARK   52  A    between atoms: _123  and  _125
REMARK   53  A    between atoms: _125  and  _126
REMARK   54  A    between atoms: _129  and  _131
REMARK   55  A    between atoms: _131  and  _132
REMARK   56  A    between atoms: _131  and  _134
REMARK   57  A    between atoms: _134  and  _135
REMARK   58  A    between atoms: _140  and  _142
REMARK   59  A    between atoms: _142  and  _143
REMARK   60  A    between atoms: _142  and  _145
REMARK   61  A    between atoms: _145  and  _146
REMARK   62  A    between atoms: _147  and  _149
REMARK   63  A    between atoms: _149  and  _150
REMARK   64  A    between atoms: _149  and  _152
REMARK   65  A    between atoms: _152  and  _153
REMARK   66  A    between atoms: _159  and  _161
REMARK   67  A    between atoms: _161  and  _162
REMARK   68  A    between atoms: _161  and  _164
REMARK   69  A    between atoms: _164  and  _165
REMARK   70  A    between atoms: _170  and  _171
REMARK   71  A    between atoms: _173  and  _175
REMARK   72  A    between atoms: _175  and  _176
REMARK   73  A    between atoms: _178  and  _180
REMARK   74  A    between atoms: _180  and  _181
REMARK   75  A    between atoms: _180  and  _183
REMARK   76  A    between atoms: _186  and  _188
REMARK   77  A    between atoms: _188  and  _189
REMARK   78  A    between atoms: _192  and  _194
REMARK   79  A    between atoms: _194  and  _195
REMARK   80  A    between atoms: _194  and  _197
REMARK   81  A    between atoms: _197  and  _198
REMARK   82  A    between atoms: _201  and  _203
REMARK   83  A    between atoms: _203  and  _204
REMARK   84  A    between atoms: _203  and  _206
REMARK   85  A    between atoms: _209  and  _211
REMARK   86  A    between atoms: _211  and  _212
REMARK   87  A    between atoms: _211  and  _214
REMARK   88  A    between atoms: _214  and  _215
REMARK   89  A    between atoms: _225  and  _227
REMARK   90  A    between atoms: _227  and  _228
REMARK   91  A    between atoms: _230  and  _232
REMARK   92  A    between atoms: _232  and  _233
REMARK   93  A    between atoms: _232  and  _235
REMARK   94  A    between atoms: _235  and  _236
REMARK   95  A    between atoms: _241  and  _242
REMARK   96  A    between atoms: _244  and  _246
REMARK   97  A    between atoms: _246  and  _247
REMARK   98  A    between atoms: _246  and  _249
REMARK   99  A    between atoms: _249  and  _250
REMARK  100  A    between atoms: _250  and  _251
REMARK  101  A    between atoms: _251  and  _252
REMARK  102  A    between atoms: _252  and  _253
REMARK  103  A    between atoms: _257  and  _259
REMARK  104  A    between atoms: _259  and  _260
REMARK  105  A    between atoms: _259  and  _262
REMARK  106  A    between atoms: _262  and  _263
REMARK  107  A    between atoms: _266  and  _268
REMARK  108  A    between atoms: _268  and  _269
REMARK  109  A    between atoms: _268  and  _271
REMARK  110  A    between atoms: _271  and  _272
REMARK  111  A    between atoms: _272  and  _273
REMARK  112  A    between atoms: _273  and  _274
REMARK  113  A    between atoms: _283  and  _285
REMARK  114  A    between atoms: _285  and  _286
REMARK  115  A    between atoms: _285  and  _288
REMARK  116  A    between atoms: _288  and  _289
REMARK  117  A    between atoms: _292  and  _294
REMARK  118  A    between atoms: _294  and  _295
REMARK  119  A    between atoms: _294  and  _297
REMARK  120  A    between atoms: _297  and  _298
REMARK  121  A    between atoms: _298  and  _299
REMARK  122  A    between atoms: _299  and  _300
REMARK  123  A    between atoms: _300  and  _301
REMARK  124  A    between atoms: _305  and  _307
REMARK  125  A    between atoms: _307  and  _308
REMARK  126  A    between atoms: _307  and  _310
REMARK  127  A    between atoms: _310  and  _311
REMARK  128  A    between atoms: _314  and  _316
REMARK  129  A    between atoms: _316  and  _317
REMARK  130  A    between atoms: _316  and  _319
REMARK  131  A    between atoms: _319  and  _320
REMARK  132  A    between atoms: _320  and  _321
REMARK  133  A    between atoms: _326  and  _328
REMARK  134  A    between atoms: _328  and  _329
REMARK  135  A    between atoms: _328  and  _331
REMARK  136  A    between atoms: _331  and  _332
REMARK  137  A    between atoms: _335  and  _337
REMARK  138  A    between atoms: _337  and  _338
REMARK  139  A    between atoms: _337  and  _340
REMARK  140  A    between atoms: _340  and  _341
REMARK  141  A    between atoms: _346  and  _347
REMARK  142  A    between atoms: _349  and  _351
REMARK  143  A    between atoms: _351  and  _352
REMARK  144  A    between atoms: _351  and  _354
REMARK  145  A    between atoms: _354  and  _355
REMARK  146  A    between atoms: _358  and  _360
REMARK  147  A    between atoms: _360  and  _361
REMARK  148  A    between atoms: _360  and  _363
REMARK  149  A    between atoms: _365  and  _367
REMARK  150  A    between atoms: _367  and  _368
REMARK  151  A    between atoms: _371  and  _373
REMARK  152  A    between atoms: _373  and  _374
REMARK  153  A    between atoms: _373  and  _376
REMARK  154  A    between atoms: _376  and  _377
REMARK  155  A    between atoms: _377  and  _378
REMARK  156  A    between atoms: _378  and  _379
REMARK  157  A    between atoms: _379  and  _380
REMARK  158  A    between atoms: _384  and  _386
REMARK  159  A    between atoms: _386  and  _387
REMARK  160  A    between atoms: _386  and  _389
REMARK  161  A    between atoms: _389  and  _390
REMARK  162  A    between atoms: _393  and  _395
REMARK  163  A    between atoms: _395  and  _396
REMARK  164  A    between atoms: _399  and  _401
REMARK  165  A    between atoms: _401  and  _402
REMARK  166  A    between atoms: _401  and  _404
REMARK  167  A    between atoms: _404  and  _405
REMARK  168  A    between atoms: _405  and  _519
REMARK  169  A    between atoms: _406  and  _408
REMARK  170  A    between atoms: _408  and  _409
REMARK  171  A    between atoms: _408  and  _411
REMARK  172  A    between atoms: _411  and  _412
REMARK  173  A    between atoms: _412  and  _413
REMARK  174  A    between atoms: _413  and  _414
REMARK  175  A    between atoms: _414  and  _415
REMARK  176  A    between atoms: _419  and  _421
REMARK  177  A    between atoms: _421  and  _422
REMARK  178  A    between atoms: _424  and  _426
REMARK  179  A    between atoms: _426  and  _427
REMARK  180  A    between atoms: _426  and  _429
REMARK  181  A    between atoms: _429  and  _430
REMARK  182  A    between atoms: _433  and  _435
REMARK  183  A    between atoms: _435  and  _436
REMARK  184  A    between atoms: _435  and  _438
REMARK  185  A    between atoms: _438  and  _439
REMARK  186  A    between atoms: _441  and  _443
REMARK  187  A    between atoms: _443  and  _444
REMARK  188  A    between atoms: _446  and  _448
REMARK  189  A    between atoms: _448  and  _449
REMARK  190  A    between atoms: _451  and  _453
REMARK  191  A    between atoms: _453  and  _454
REMARK  192  A    between atoms: _453  and  _456
REMARK  193  A    between atoms: _456  and  _457
REMARK  194  A    between atoms: _460  and  _462
REMARK  195  A    between atoms: _462  and  _463
REMARK  196  A    between atoms: _462  and  _465
REMARK  197  A    between atoms: _465  and  _466
REMARK  198  A    between atoms: _469  and  _471
REMARK  199  A    between atoms: _471  and  _472
REMARK  200  A    between atoms: _471  and  _474
REMARK  201  A    between atoms: _474  and  _475
REMARK  202  A    between atoms: _477  and  _479
REMARK  203  A    between atoms: _479  and  _480
REMARK  204  A    between atoms: _479  and  _482
REMARK  205  A    between atoms: _482  and  _483
REMARK  206  A    between atoms: _493  and  _495
REMARK  207  A    between atoms: _495  and  _496
REMARK  208  A    between atoms: _498  and  _500
REMARK  209  A    between atoms: _500  and  _501
REMARK  210  A    between atoms: _500  and  _503
REMARK  211  A    between atoms: _503  and  _504
REMARK  212  A    between atoms: _504  and  _505
REMARK  213  A    between atoms: _508  and  _510
REMARK  214  A    between atoms: _510  and  _511
REMARK  215  A    between atoms: _513  and  _515
REMARK  216  A    between atoms: _515  and  _516
REMARK  217  A    between atoms: _515  and  _518
REMARK  218  A    between atoms: _518  and  _519
REMARK  219  A    between atoms: _520  and  _522
REMARK  220  A    between atoms: _522  and  _523
REMARK  221  A    between atoms: _526  and  _528
REMARK  222  A    between atoms: _528  and  _529
REMARK  223  A    between atoms: _528  and  _531
REMARK  224  A    between atoms: _531  and  _532
REMARK  225  A    between atoms: _532  and  _533
REMARK  226  A    between atoms: _538  and  _540
REMARK  227  A    between atoms: _540  and  _541
REMARK  228  A    between atoms: _540  and  _543
REMARK  229  A    between atoms: _543  and  _544
REMARK  230  A    between atoms: _544  and  _545
REMARK  231  A    between atoms: _545  and  _546
REMARK  232  A    between atoms: _556  and  _557
REMARK  233  A    between atoms: _562  and  _564
REMARK  234  A    between atoms: _564  and  _565
REMARK  235  A    between atoms: _567  and  _569
REMARK  236  A    between atoms: _569  and  _570
REMARK  237  A    between atoms: _569  and  _572
REMARK  238  A    between atoms: _575  and  _577
REMARK  239  A    between atoms: _577  and  _578
REMARK  240  A    between atoms: _577  and  _580
REMARK  241  A    between atoms: _580  and  _581
REMARK  242  A    between atoms: _586  and  _587
REMARK  243  A    between atoms: _589  and  _591
REMARK  244  A    between atoms: _591  and  _592
REMARK  245  A    between atoms: _591  and  _594
REMARK  246  A    between atoms: _594  and  _595
REMARK                            x       y       z     vdW  Elec       q    Type
REMARK                         _______ _______ _______ _____ _____    ______ ____
ROOT
ATOM      1  O   HOH     1      28.593   4.711  47.605  0.00  0.00    +0.000 OA
ENDROOT
TORSDOF 0
REMARK  Name = ../refined-set-2016/4crb/4crb_pocket.pdb
REMARK  246 active torsions:
REMARK  status: ('A' for Active; 'I' for Inactive)
REMARK    1  A    between atoms: _1  and  _5
REMARK    2  A    between atoms: _5  and  _6
REMARK    3  A    between atoms: _5  and  _8
REMARK    4  A    between atoms: _8  and  _9
REMARK    5  A    between atoms: _12  and  _14
REMARK    6  A    between atoms: _14  and  _15
REMARK    7  A    between atoms: _14  and  _17
REMARK    8  A    between atoms: _20  and  _22
REMARK    9  A    between atoms: _22  and  _23
REMARK   10  A    between atoms: _22  and  _25
REMARK   11  A    between atoms: _25  and  _26
REMARK   12  A    between atoms: _29  and  _31
REMARK   13  A    between atoms: _31  and  _32
REMARK   14  A    between atoms: _31  and  _34
REMARK   15  A    between atoms: _34  and  _35
REMARK   16  A    between atoms: _38  and  _40
REMARK   17  A    between atoms: _40  and  _41
REMARK   18  A    between atoms: _40  and  _43
REMARK   19  A    between atoms: _43  and  _44
REMARK   20  A    between atoms: _47  and  _49
REMARK   21  A    between atoms: _49  and  _50
REMARK   22  A    between atoms: _49  and  _52
REMARK   23  A    between atoms: _52  and  _53
REMARK   24  A    between atoms: _56  and  _58
REMARK   25  A    between atoms: _58  and  _59
REMARK   26  A    between atoms: _58  and  _61
REMARK   27  A    between atoms: _61  and  _62
REMARK   28  A    between atoms: _62  and  _63
REMARK   29  A    between atoms: _68  and  _70
REMARK   30  A    between atoms: _70  and  _71
REMARK   31  A    between atoms: _70  and  _73
REMARK   32  A    between atoms: _73  and  _74
REMARK   33  A    between atoms: _74  and  _75
REMARK   34  A    between atoms: _75  and  _76
REMARK   35  A    between atoms: _85  and  _87
REMARK   36  A    between atoms: _87  and  _88
REMARK   37  A    between atoms: _87  and  _90
REMARK   38  A    between atoms: _90  and  _91
REMARK   39  A    between atoms: _96  and  _98
REMARK   40  A    between atoms: _98  and  _99
REMARK   41  A    between atoms: _98  and  _101
REMARK   42  A    between atoms: _101  and  _102
REMARK   43  A    between atoms: _105  and  _107
REMARK   44  A    between atoms: _107  and  _108
REMARK   45  A    between atoms: _107  and  _110
REMARK   46  A    between atoms: _110  and  _111
REMARK   47  A    between atoms: _111  and  _146
REMARK   48  A    between atoms: _112  and  _114
REMARK   49  A    between atoms: _114  and  _115
REMARK   50  A    between atoms: _117  and  _119
REMARK   51  A    between atoms: _119  and  _120
REMARK   52  A    between atoms: _123  and  _125
REMARK   53  A    between atoms: _125  and  _126
REMARK   54  A    between atoms: _129  and  _131
REMARK   55  A    between atoms: _131  and  _132
REMARK   56  A    between atoms: _131  and  _134
REMARK   57  A    between atoms: _134  and  _135
REMARK   58  A    between atoms: _140  and  _142
REMARK   59  A    between atoms: _142  and  _143
REMARK   60  A    between atoms: _142  and  _145
REMARK   61  A    between atoms: _145  and  _146
REMARK   62  A    between atoms: _147  and  _149
REMARK   63  A    between atoms: _149  and  _150
REMARK   64  A    between atoms: _149  and  _152
REMARK   65  A    between atoms: _152  and  _153
REMARK   66  A    between atoms: _159  and  _161
REMARK   67  A    between atoms: _161  and  _162
REMARK   68  A    between atoms: _161  and  _164
REMARK   69  A    between atoms: _164  and  _165
REMARK   70  A    between atoms: _170  and  _171
REMARK   71  A    between atoms: _173  and  _175
REMARK   72  A    between atoms: _175  and  _176
REMARK   73  A    between atoms: _178  and  _180
REMARK   74  A    between atoms: _180  and  _181
REMARK   75  A    between atoms: _180  and  _183
REMARK   76  A    between atoms: _186  and  _188
REMARK   77  A    between atoms: _188  and  _189
REMARK   78  A    between atoms: _192  and  _194
REMARK   79  A    between atoms: _194  and  _195
REMARK   80  A    between atoms: _194  and  _197
REMARK   81  A    between atoms: _197  and  _198
REMARK   82  A    between atoms: _201  and  _203
REMARK   83  A    between atoms: _203  and  _204
REMARK   84  A    between atoms: _203  and  _206
REMARK   85  A    between atoms: _209  and  _211
REMARK   86  A    between atoms: _211  and  _212
REMARK   87  A    between atoms: _211  and  _214
REMARK   88  A    between atoms: _214  and  _215
REMARK   89  A    between atoms: _225  and  _227
REMARK   90  A    between atoms: _227  and  _228
REMARK   91  A    between atoms: _230  and  _232
REMARK   92  A    between atoms: _232  and  _233
REMARK   93  A    between atoms: _232  and  _235
REMARK   94  A    between atoms: _235  and  _236
REMARK   95  A    between atoms: _241  and  _242
REMARK   96  A    between atoms: _244  and  _246
REMARK   97  A    between atoms: _246  and  _247
REMARK   98  A    between atoms: _246  and  _249
REMARK   99  A    between atoms: _249  and  _250
REMARK  100  A    between atoms: _250  and  _251
REMARK  101  A    between atoms: _251  and  _252
REMARK  102  A    between atoms: _252  and  _253
REMARK  103  A    between atoms: _257  and  _259
REMARK  104  A    between atoms: _259  and  _260
REMARK  105  A    between atoms: _259  and  _262
REMARK  106  A    between atoms: _262  and  _263
REMARK  107  A    between atoms: _266  and  _268
REMARK  108  A    between atoms: _268  and  _269
REMARK  109  A    between atoms: _268  and  _271
REMARK  110  A    between atoms: _271  and  _272
REMARK  111  A    between atoms: _272  and  _273
REMARK  112  A    between atoms: _273  and  _274
REMARK  113  A    between atoms: _283  and  _285
REMARK  114  A    between atoms: _285  and  _286
REMARK  115  A    between atoms: _285  and  _288
REMARK  116  A    between atoms: _288  and  _289
REMARK  117  A    between atoms: _292  and  _294
REMARK  118  A    between atoms: _294  and  _295
REMARK  119  A    between atoms: _294  and  _297
REMARK  120  A    between atoms: _297  and  _298
REMARK  121  A    between atoms: _298  and  _299
REMARK  122  A    between atoms: _299  and  _300
REMARK  123  A    between atoms: _300  and  _301
REMARK  124  A    between atoms: _305  and  _307
REMARK  125  A    between atoms: _307  and  _308
REMARK  126  A    between atoms: _307  and  _310
REMARK  127  A    between atoms: _310  and  _311
REMARK  128  A    between atoms: _314  and  _316
REMARK  129  A    between atoms: _316  and  _317
REMARK  130  A    between atoms: _316  and  _319
REMARK  131  A    between atoms: _319  and  _320
REMARK  132  A    between atoms: _320  and  _321
REMARK  133  A    between atoms: _326  and  _328
REMARK  134  A    between atoms: _328  and  _329
REMARK  135  A    between atoms: _328  and  _331
REMARK  136  A    between atoms: _331  and  _332
REMARK  137  A    between atoms: _335  and  _337
REMARK  138  A    between atoms: _337  and  _338
REMARK  139  A    between atoms: _337  and  _340
REMARK  140  A    between atoms: _340  and  _341
REMARK  141  A    between atoms: _346  and  _347
REMARK  142  A    between atoms: _349  and  _351
REMARK  143  A    between atoms: _351  and  _352
REMARK  144  A    between atoms: _351  and  _354
REMARK  145  A    between atoms: _354  and  _355
REMARK  146  A    between atoms: _358  and  _360
REMARK  147  A    between atoms: _360  and  _361
REMARK  148  A    between atoms: _360  and  _363
REMARK  149  A    between atoms: _365  and  _367
REMARK  150  A    between atoms: _367  and  _368
REMARK  151  A    between atoms: _371  and  _373
REMARK  152  A    between atoms: _373  and  _374
REMARK  153  A    between atoms: _373  and  _376
REMARK  154  A    between atoms: _376  and  _377
REMARK  155  A    between atoms: _377  and  _378
REMARK  156  A    between atoms: _378  and  _379
REMARK  157  A    between atoms: _379  and  _380
REMARK  158  A    between atoms: _384  and  _386
REMARK  159  A    between atoms: _386  and  _387
REMARK  160  A    between atoms: _386  and  _389
REMARK  161  A    between atoms: _389  and  _390
REMARK  162  A    between atoms: _393  and  _395
REMARK  163  A    between atoms: _395  and  _396
REMARK  164  A    between atoms: _399  and  _401
REMARK  165  A    between atoms: _401  and  _402
REMARK  166  A    between atoms: _401  and  _404
REMARK  167  A    between atoms: _404  and  _405
REMARK  168  A    between atoms: _405  and  _519
REMARK  169  A    between atoms: _406  and  _408
REMARK  170  A    between atoms: _408  and  _409
REMARK  171  A    between atoms: _408  and  _411
REMARK  172  A    between atoms: _411  and  _412
REMARK  173  A    between atoms: _412  and  _413
REMARK  174  A    between atoms: _413  and  _414
REMARK  175  A    between atoms: _414  and  _415
REMARK  176  A    between atoms: _419  and  _421
REMARK  177  A    between atoms: _421  and  _422
REMARK  178  A    between atoms: _424  and  _426
REMARK  179  A    between atoms: _426  and  _427
REMARK  180  A    between atoms: _426  and  _429
REMARK  181  A    between atoms: _429  and  _430
REMARK  182  A    between atoms: _433  and  _435
REMARK  183  A    between atoms: _435  and  _436
REMARK  184  A    between atoms: _435  and  _438
REMARK  185  A    between atoms: _438  and  _439
REMARK  186  A    between atoms: _441  and  _443
REMARK  187  A    between atoms: _443  and  _444
REMARK  188  A    between atoms: _446  and  _448
REMARK  189  A    between atoms: _448  and  _449
REMARK  190  A    between atoms: _451  and  _453
REMARK  191  A    between atoms: _453  and  _454
REMARK  192  A    between atoms: _453  and  _456
REMARK  193  A    between atoms: _456  and  _457
REMARK  194  A    between atoms: _460  and  _462
REMARK  195  A    between atoms: _462  and  _463
REMARK  196  A    between atoms: _462  and  _465
REMARK  197  A    between atoms: _465  and  _466
REMARK  198  A    between atoms: _469  and  _471
REMARK  199  A    between atoms: _471  and  _472
REMARK  200  A    between atoms: _471  and  _474
REMARK  201  A    between atoms: _474  and  _475
REMARK  202  A    between atoms: _477  and  _479
REMARK  203  A    between atoms: _479  and  _480
REMARK  204  A    between atoms: _479  and  _482
REMARK  205  A    between atoms: _482  and  _483
REMARK  206  A    between atoms: _493  and  _495
REMARK  207  A    between atoms: _495  and  _496
REMARK  208  A    between atoms: _498  and  _500
REMARK  209  A    between atoms: _500  and  _501
REMARK  210  A    between atoms: _500  and  _503
REMARK  211  A    between atoms: _503  and  _504
REMARK  212  A    between atoms: _504  and  _505
REMARK  213  A    between atoms: _508  and  _510
REMARK  214  A    between atoms: _510  and  _511
REMARK  215  A    between atoms: _513  and  _515
REMARK  216  A    between atoms: _515  and  _516
REMARK  217  A    between atoms: _515  and  _518
REMARK  218  A    between atoms: _518  and  _519
REMARK  219  A    between atoms: _520  and  _522
REMARK  220  A    between atoms: _522  and  _523
REMARK  221  A    between atoms: _526  and  _528
REMARK  222  A    between atoms: _528  and  _529
REMARK  223  A    between atoms: _528  and  _531
REMARK  224  A    between atoms: _531  and  _532
REMARK  225  A    between atoms: _532  and  _533
REMARK  226  A    between atoms: _538  and  _540
REMARK  227  A    between atoms: _540  and  _541
REMARK  228  A    between atoms: _540  and  _543
REMARK  229  A    between atoms: _543  and  _544
REMARK  230  A    between atoms: _544  and  _545
REMARK  231  A    between atoms: _545  and  _546
REMARK  232  A    between atoms: _556  and  _557
REMARK  233  A    between atoms: _562  and  _564
REMARK  234  A    between atoms: _564  and  _565
REMARK  235  A    between atoms: _567  and  _569
REMARK  236  A    between atoms: _569  and  _570
REMARK  237  A    between atoms: _569  and  _572
REMARK  238  A    between atoms: _575  and  _577
REMARK  239  A    between atoms: _577  and  _578
REMARK  240  A    between atoms: _577  and  _580
REMARK  241  A    between atoms: _580  and  _581
REMARK  242  A    between atoms: _586  and  _587
REMARK  243  A    between atoms: _589  and  _591
REMARK  244  A    between atoms: _591  and  _592
REMARK  245  A    between atoms: _591  and  _594
REMARK  246  A    between atoms: _594  and  _595
REMARK                            x       y       z     vdW  Elec       q    Type
REMARK                         _______ _______ _______ _____ _____    ______ ____
ROOT
ATOM      1  O   HOH     1      28.191   9.392  51.603  0.00  0.00    +0.000 OA
ENDROOT
TORSDOF 0
REMARK  Name = ../refined-set-2016/4crb/4crb_pocket.pdb
REMARK  246 active torsions:
REMARK  status: ('A' for Active; 'I' for Inactive)
REMARK    1  A    between atoms: _1  and  _5
REMARK    2  A    between atoms: _5  and  _6
REMARK    3  A    between atoms: _5  and  _8
REMARK    4  A    between atoms: _8  and  _9
REMARK    5  A    between atoms: _12  and  _14
REMARK    6  A    between atoms: _14  and  _15
REMARK    7  A    between atoms: _14  and  _17
REMARK    8  A    between atoms: _20  and  _22
REMARK    9  A    between atoms: _22  and  _23
REMARK   10  A    between atoms: _22  and  _25
REMARK   11  A    between atoms: _25  and  _26
REMARK   12  A    between atoms: _29  and  _31
REMARK   13  A    between atoms: _31  and  _32
REMARK   14  A    between atoms: _31  and  _34
REMARK   15  A    between atoms: _34  and  _35
REMARK   16  A    between atoms: _38  and  _40
REMARK   17  A    between atoms: _40  and  _41
REMARK   18  A    between atoms: _40  and  _43
REMARK   19  A    between atoms: _43  and  _44
REMARK   20  A    between atoms: _47  and  _49
REMARK   21  A    between atoms: _49  and  _50
REMARK   22  A    between atoms: _49  and  _52
REMARK   23  A    between atoms: _52  and  _53
REMARK   24  A    between atoms: _56  and  _58
REMARK   25  A    between atoms: _58  and  _59
REMARK   26  A    between atoms: _58  and  _61
REMARK   27  A    between atoms: _61  and  _62
REMARK   28  A    between atoms: _62  and  _63
REMARK   29  A    between atoms: _68  and  _70
REMARK   30  A    between atoms: _70  and  _71
REMARK   31  A    between atoms: _70  and  _73
REMARK   32  A    between atoms: _73  and  _74
REMARK   33  A    between atoms: _74  and  _75
REMARK   34  A    between atoms: _75  and  _76
REMARK   35  A    between atoms: _85  and  _87
REMARK   36  A    between atoms: _87  and  _88
REMARK   37  A    between atoms: _87  and  _90
REMARK   38  A    between atoms: _90  and  _91
REMARK   39  A    between atoms: _96  and  _98
REMARK   40  A    between atoms: _98  and  _99
REMARK   41  A    between atoms: _98  and  _101
REMARK   42  A    between atoms: _101  and  _102
REMARK   43  A    between atoms: _105  and  _107
REMARK   44  A    between atoms: _107  and  _108
REMARK   45  A    between atoms: _107  and  _110
REMARK   46  A    between atoms: _110  and  _111
REMARK   47  A    between atoms: _111  and  _146
REMARK   48  A    between atoms: _112  and  _114
REMARK   49  A    between atoms: _114  and  _115
REMARK   50  A    between atoms: _117  and  _119
REMARK   51  A    between atoms: _119  and  _120
REMARK   52  A    between atoms: _123  and  _125
REMARK   53  A    between atoms: _125  and  _126
REMARK   54  A    between atoms: _129  and  _131
REMARK   55  A    between atoms: _131  and  _132
REMARK   56  A    between atoms: _131  and  _134
REMARK   57  A    between atoms: _134  and  _135
REMARK   58  A    between atoms: _140  and  _142
REMARK   59  A    between atoms: _142  and  _143
REMARK   60  A    between atoms: _142  and  _145
REMARK   61  A    between atoms: _145  and  _146
REMARK   62  A    between atoms: _147  and  _149
REMARK   63  A    between atoms: _149  and  _150
REMARK   64  A    between atoms: _149  and  _152
REMARK   65  A    between atoms: _152  and  _153
REMARK   66  A    between atoms: _159  and  _161
REMARK   67  A    between atoms: _161  and  _162
REMARK   68  A    between atoms: _161  and  _164
REMARK   69  A    between atoms: _164  and  _165
REMARK   70  A    between atoms: _170  and  _171
REMARK   71  A    between atoms: _173  and  _175
REMARK   72  A    between atoms: _175  and  _176
REMARK   73  A    between atoms: _178  and  _180
REMARK   74  A    between atoms: _180  and  _181
REMARK   75  A    between atoms: _180  and  _183
REMARK   76  A    between atoms: _186  and  _188
REMARK   77  A    between atoms: _188  and  _189
REMARK   78  A    between atoms: _192  and  _194
REMARK   79  A    between atoms: _194  and  _195
REMARK   80  A    between atoms: _194  and  _197
REMARK   81  A    between atoms: _197  and  _198
REMARK   82  A    between atoms: _201  and  _203
REMARK   83  A    between atoms: _203  and  _204
REMARK   84  A    between atoms: _203  and  _206
REMARK   85  A    between atoms: _209  and  _211
REMARK   86  A    between atoms: _211  and  _212
REMARK   87  A    between atoms: _211  and  _214
REMARK   88  A    between atoms: _214  and  _215
REMARK   89  A    between atoms: _225  and  _227
REMARK   90  A    between atoms: _227  and  _228
REMARK   91  A    between atoms: _230  and  _232
REMARK   92  A    between atoms: _232  and  _233
REMARK   93  A    between atoms: _232  and  _235
REMARK   94  A    between atoms: _235  and  _236
REMARK   95  A    between atoms: _241  and  _242
REMARK   96  A    between atoms: _244  and  _246
REMARK   97  A    between atoms: _246  and  _247
REMARK   98  A    between atoms: _246  and  _249
REMARK   99  A    between atoms: _249  and  _250
REMARK  100  A    between atoms: _250  and  _251
REMARK  101  A    between atoms: _251  and  _252
REMARK  102  A    between atoms: _252  and  _253
REMARK  103  A    between atoms: _257  and  _259
REMARK  104  A    between atoms: _259  and  _260
REMARK  105  A    between atoms: _259  and  _262
REMARK  106  A    between atoms: _262  and  _263
REMARK  107  A    between atoms: _266  and  _268
REMARK  108  A    between atoms: _268  and  _269
REMARK  109  A    between atoms: _268  and  _271
REMARK  110  A    between atoms: _271  and  _272
REMARK  111  A    between atoms: _272  and  _273
REMARK  112  A    between atoms: _273  and  _274
REMARK  113  A    between atoms: _283  and  _285
REMARK  114  A    between atoms: _285  and  _286
REMARK  115  A    between atoms: _285  and  _288
REMARK  116  A    between atoms: _288  and  _289
REMARK  117  A    between atoms: _292  and  _294
REMARK  118  A    between atoms: _294  and  _295
REMARK  119  A    between atoms: _294  and  _297
REMARK  120  A    between atoms: _297  and  _298
REMARK  121  A    between atoms: _298  and  _299
REMARK  122  A    between atoms: _299  and  _300
REMARK  123  A    between atoms: _300  and  _301
REMARK  124  A    between atoms: _305  and  _307
REMARK  125  A    between atoms: _307  and  _308
REMARK  126  A    between atoms: _307  and  _310
REMARK  127  A    between atoms: _310  and  _311
REMARK  128  A    between atoms: _314  and  _316
REMARK  129  A    between atoms: _316  and  _317
REMARK  130  A    between atoms: _316  and  _319
REMARK  131  A    between atoms: _319  and  _320
REMARK  132  A    between atoms: _320  and  _321
REMARK  133  A    between atoms: _326  and  _328
REMARK  134  A    between atoms: _328  and  _329
REMARK  135  A    between atoms: _328  and  _331
REMARK  136  A    between atoms: _331  and  _332
REMARK  137  A    between atoms: _335  and  _337
REMARK  138  A    between atoms: _337  and  _338
REMARK  139  A    between atoms: _337  and  _340
REMARK  140  A    between atoms: _340  and  _341
REMARK  141  A    between atoms: _346  and  _347
REMARK  142  A    between atoms: _349  and  _351
REMARK  143  A    between atoms: _351  and  _352
REMARK  144  A    between atoms: _351  and  _354
REMARK  145  A    between atoms: _354  and  _355
REMARK  146  A    between atoms: _358  and  _360
REMARK  147  A    between atoms: _360  and  _361
REMARK  148  A    between atoms: _360  and  _363
REMARK  149  A    between atoms: _365  and  _367
REMARK  150  A    between atoms: _367  and  _368
REMARK  151  A    between atoms: _371  and  _373
REMARK  152  A    between atoms: _373  and  _374
REMARK  153  A    between atoms: _373  and  _376
REMARK  154  A    between atoms: _376  and  _377
REMARK  155  A    between atoms: _377  and  _378
REMARK  156  A    between atoms: _378  and  _379
REMARK  157  A    between atoms: _379  and  _380
REMARK  158  A    between atoms: _384  and  _386
REMARK  159  A    between atoms: _386  and  _387
REMARK  160  A    between atoms: _386  and  _389
REMARK  161  A    between atoms: _389  and  _390
REMARK  162  A    between atoms: _393  and  _395
REMARK  163  A    between atoms: _395  and  _396
REMARK  164  A    between atoms: _399  and  _401
REMARK  165  A    between atoms: _401  and  _402
REMARK  166  A    between atoms: _401  and  _404
REMARK  167  A    between atoms: _404  and  _405
REMARK  168  A    between atoms: _405  and  _519
REMARK  169  A    between atoms: _406  and  _408
REMARK  170  A    between atoms: _408  and  _409
REMARK  171  A    between atoms: _408  and  _411
REMARK  172  A    between atoms: _411  and  _412
REMARK  173  A    between atoms: _412  and  _413
REMARK  174  A    between atoms: _413  and  _414
REMARK  175  A    between atoms: _414  and  _415
REMARK  176  A    between atoms: _419  and  _421
REMARK  177  A    between atoms: _421  and  _422
REMARK  178  A    between atoms: _424  and  _426
REMARK  179  A    between atoms: _426  and  _427
REMARK  180  A    between atoms: _426  and  _429
REMARK  181  A    between atoms: _429  and  _430
REMARK  182  A    between atoms: _433  and  _435
REMARK  183  A    between atoms: _435  and  _436
REMARK  184  A    between atoms: _435  and  _438
REMARK  185  A    between atoms: _438  and  _439
REMARK  186  A    between atoms: _441  and  _443
REMARK  187  A    between atoms: _443  and  _444
REMARK  188  A    between atoms: _446  and  _448
REMARK  189  A    between atoms: _448  and  _449
REMARK  190  A    between atoms: _451  and  _453
REMARK  191  A    between atoms: _453  and  _454
REMARK  192  A    between atoms: _453  and  _456
REMARK  193  A    between atoms: _456  and  _457
REMARK  194  A    between atoms: _460  and  _462
REMARK  195  A    between atoms: _462  and  _463
REMARK  196  A    between atoms: _462  and  _465
REMARK  197  A    between atoms: _465  and  _466
REMARK  198  A    between atoms: _469  and  _471
REMARK  199  A    between atoms: _471  and  _472
REMARK  200  A    between atoms: _471  and  _474
REMARK  201  A    between atoms: _474  and  _475
REMARK  202  A    between atoms: _477  and  _479
REMARK  203  A    between atoms: _479  and  _480
REMARK  204  A    between atoms: _479  and  _482
REMARK  205  A    between atoms: _482  and  _483
REMARK  206  A    between atoms: _493  and  _495
REMARK  207  A    between atoms: _495  and  _496
REMARK  208  A    between atoms: _498  and  _500
REMARK  209  A    between atoms: _500  and  _501
REMARK  210  A    between atoms: _500  and  _503
REMARK  211  A    between atoms: _503  and  _504
REMARK  212  A    between atoms: _504  and  _505
REMARK  213  A    between atoms: _508  and  _510
REMARK  214  A    between atoms: _510  and  _511
REMARK  215  A    between atoms: _513  and  _515
REMARK  216  A    between atoms: _515  and  _516
REMARK  217  A    between atoms: _515  and  _518
REMARK  218  A    between atoms: _518  and  _519
REMARK  219  A    between atoms: _520  and  _522
REMARK  220  A    between atoms: _522  and  _523
REMARK  221  A    between atoms: _526  and  _528
REMARK  222  A    between atoms: _528  and  _529
REMARK  223  A    between atoms: _528  and  _531
REMARK  224  A    between atoms: _531  and  _532
REMARK  225  A    between atoms: _532  and  _533
REMARK  226  A    between atoms: _538  and  _540
REMARK  227  A    between atoms: _540  and  _541
REMARK  228  A    between atoms: _540  and  _543
REMARK  229  A    between atoms: _543  and  _544
REMARK  230  A    between atoms: _544  and  _545
REMARK  231  A    between atoms: _545  and  _546
REMARK  232  A    between atoms: _556  and  _557
REMARK  233  A    between atoms: _562  and  _564
REMARK  234  A    between atoms: _564  and  _565
REMARK  235  A    between atoms: _567  and  _569
REMARK  236  A    between atoms: _569  and  _570
REMARK  237  A    between atoms: _569  and  _572
REMARK  238  A    between atoms: _575  and  _577
REMARK  239  A    between atoms: _577  and  _578
REMARK  240  A    between atoms: _577  and  _580
REMARK  241  A    between atoms: _580  and  _581
REMARK  242  A    between atoms: _586  and  _587
REMARK  243  A    between atoms: _589  and  _591
REMARK  244  A    between atoms: _591  and  _592
REMARK  245  A    between atoms: _591  and  _594
REMARK  246  A    between atoms: _594  and  _595
REMARK                            x       y       z     vdW  Elec       q    Type
REMARK                         _______ _______ _______ _____ _____    ______ ____
ROOT
ATOM      1  O   HOH     1      28.524  16.478  54.845  0.00  0.00    +0.000 OA
ENDROOT
TORSDOF 0
REMARK  Name = ../refined-set-2016/4crb/4crb_pocket.pdb
REMARK  246 active torsions:
REMARK  status: ('A' for Active; 'I' for Inactive)
REMARK    1  A    between atoms: _1  and  _5
REMARK    2  A    between atoms: _5  and  _6
REMARK    3  A    between atoms: _5  and  _8
REMARK    4  A    between atoms: _8  and  _9
REMARK    5  A    between atoms: _12  and  _14
REMARK    6  A    between atoms: _14  and  _15
REMARK    7  A    between atoms: _14  and  _17
REMARK    8  A    between atoms: _20  and  _22
REMARK    9  A    between atoms: _22  and  _23
REMARK   10  A    between atoms: _22  and  _25
REMARK   11  A    between atoms: _25  and  _26
REMARK   12  A    between atoms: _29  and  _31
REMARK   13  A    between atoms: _31  and  _32
REMARK   14  A    between atoms: _31  and  _34
REMARK   15  A    between atoms: _34  and  _35
REMARK   16  A    between atoms: _38  and  _40
REMARK   17  A    between atoms: _40  and  _41
REMARK   18  A    between atoms: _40  and  _43
REMARK   19  A    between atoms: _43  and  _44
REMARK   20  A    between atoms: _47  and  _49
REMARK   21  A    between atoms: _49  and  _50
REMARK   22  A    between atoms: _49  and  _52
REMARK   23  A    between atoms: _52  and  _53
REMARK   24  A    between atoms: _56  and  _58
REMARK   25  A    between atoms: _58  and  _59
REMARK   26  A    between atoms: _58  and  _61
REMARK   27  A    between atoms: _61  and  _62
REMARK   28  A    between atoms: _62  and  _63
REMARK   29  A    between atoms: _68  and  _70
REMARK   30  A    between atoms: _70  and  _71
REMARK   31  A    between atoms: _70  and  _73
REMARK   32  A    between atoms: _73  and  _74
REMARK   33  A    between atoms: _74  and  _75
REMARK   34  A    between atoms: _75  and  _76
REMARK   35  A    between atoms: _85  and  _87
REMARK   36  A    between atoms: _87  and  _88
REMARK   37  A    between atoms: _87  and  _90
REMARK   38  A    between atoms: _90  and  _91
REMARK   39  A    between atoms: _96  and  _98
REMARK   40  A    between atoms: _98  and  _99
REMARK   41  A    between atoms: _98  and  _101
REMARK   42  A    between atoms: _101  and  _102
REMARK   43  A    between atoms: _105  and  _107
REMARK   44  A    between atoms: _107  and  _108
REMARK   45  A    between atoms: _107  and  _110
REMARK   46  A    between atoms: _110  and  _111
REMARK   47  A    between atoms: _111  and  _146
REMARK   48  A    between atoms: _112  and  _114
REMARK   49  A    between atoms: _114  and  _115
REMARK   50  A    between atoms: _117  and  _119
REMARK   51  A    between atoms: _119  and  _120
REMARK   52  A    between atoms: _123  and  _125
REMARK   53  A    between atoms: _125  and  _126
REMARK   54  A    between atoms: _129  and  _131
REMARK   55  A    between atoms: _131  and  _132
REMARK   56  A    between atoms: _131  and  _134
REMARK   57  A    between atoms: _134  and  _135
REMARK   58  A    between atoms: _140  and  _142
REMARK   59  A    between atoms: _142  and  _143
REMARK   60  A    between atoms: _142  and  _145
REMARK   61  A    between atoms: _145  and  _146
REMARK   62  A    between atoms: _147  and  _149
REMARK   63  A    between atoms: _149  and  _150
REMARK   64  A    between atoms: _149  and  _152
REMARK   65  A    between atoms: _152  and  _153
REMARK   66  A    between atoms: _159  and  _161
REMARK   67  A    between atoms: _161  and  _162
REMARK   68  A    between atoms: _161  and  _164
REMARK   69  A    between atoms: _164  and  _165
REMARK   70  A    between atoms: _170  and  _171
REMARK   71  A    between atoms: _173  and  _175
REMARK   72  A    between atoms: _175  and  _176
REMARK   73  A    between atoms: _178  and  _180
REMARK   74  A    between atoms: _180  and  _181
REMARK   75  A    between atoms: _180  and  _183
REMARK   76  A    between atoms: _186  and  _188
REMARK   77  A    between atoms: _188  and  _189
REMARK   78  A    between atoms: _192  and  _194
REMARK   79  A    between atoms: _194  and  _195
REMARK   80  A    between atoms: _194  and  _197
REMARK   81  A    between atoms: _197  and  _198
REMARK   82  A    between atoms: _201  and  _203
REMARK   83  A    between atoms: _203  and  _204
REMARK   84  A    between atoms: _203  and  _206
REMARK   85  A    between atoms: _209  and  _211
REMARK   86  A    between atoms: _211  and  _212
REMARK   87  A    between atoms: _211  and  _214
REMARK   88  A    between atoms: _214  and  _215
REMARK   89  A    between atoms: _225  and  _227
REMARK   90  A    between atoms: _227  and  _228
REMARK   91  A    between atoms: _230  and  _232
REMARK   92  A    between atoms: _232  and  _233
REMARK   93  A    between atoms: _232  and  _235
REMARK   94  A    between atoms: _235  and  _236
REMARK   95  A    between atoms: _241  and  _242
REMARK   96  A    between atoms: _244  and  _246
REMARK   97  A    between atoms: _246  and  _247
REMARK   98  A    between atoms: _246  and  _249
REMARK   99  A    between atoms: _249  and  _250
REMARK  100  A    between atoms: _250  and  _251
REMARK  101  A    between atoms: _251  and  _252
REMARK  102  A    between atoms: _252  and  _253
REMARK  103  A    between atoms: _257  and  _259
REMARK  104  A    between atoms: _259  and  _260
REMARK  105  A    between atoms: _259  and  _262
REMARK  106  A    between atoms: _262  and  _263
REMARK  107  A    between atoms: _266  and  _268
REMARK  108  A    between atoms: _268  and  _269
REMARK  109  A    between atoms: _268  and  _271
REMARK  110  A    between atoms: _271  and  _272
REMARK  111  A    between atoms: _272  and  _273
REMARK  112  A    between atoms: _273  and  _274
REMARK  113  A    between atoms: _283  and  _285
REMARK  114  A    between atoms: _285  and  _286
REMARK  115  A    between atoms: _285  and  _288
REMARK  116  A    between atoms: _288  and  _289
REMARK  117  A    between atoms: _292  and  _294
REMARK  118  A    between atoms: _294  and  _295
REMARK  119  A    between atoms: _294  and  _297
REMARK  120  A    between atoms: _297  and  _298
REMARK  121  A    between atoms: _298  and  _299
REMARK  122  A    between atoms: _299  and  _300
REMARK  123  A    between atoms: _300  and  _301
REMARK  124  A    between atoms: _305  and  _307
REMARK  125  A    between atoms: _307  and  _308
REMARK  126  A    between atoms: _307  and  _310
REMARK  127  A    between atoms: _310  and  _311
REMARK  128  A    between atoms: _314  and  _316
REMARK  129  A    between atoms: _316  and  _317
REMARK  130  A    between atoms: _316  and  _319
REMARK  131  A    between atoms: _319  and  _320
REMARK  132  A    between atoms: _320  and  _321
REMARK  133  A    between atoms: _326  and  _328
REMARK  134  A    between atoms: _328  and  _329
REMARK  135  A    between atoms: _328  and  _331
REMARK  136  A    between atoms: _331  and  _332
REMARK  137  A    between atoms: _335  and  _337
REMARK  138  A    between atoms: _337  and  _338
REMARK  139  A    between atoms: _337  and  _340
REMARK  140  A    between atoms: _340  and  _341
REMARK  141  A    between atoms: _346  and  _347
REMARK  142  A    between atoms: _349  and  _351
REMARK  143  A    between atoms: _351  and  _352
REMARK  144  A    between atoms: _351  and  _354
REMARK  145  A    between atoms: _354  and  _355
REMARK  146  A    between atoms: _358  and  _360
REMARK  147  A    between atoms: _360  and  _361
REMARK  148  A    between atoms: _360  and  _363
REMARK  149  A    between atoms: _365  and  _367
REMARK  150  A    between atoms: _367  and  _368
REMARK  151  A    between atoms: _371  and  _373
REMARK  152  A    between atoms: _373  and  _374
REMARK  153  A    between atoms: _373  and  _376
REMARK  154  A    between atoms: _376  and  _377
REMARK  155  A    between atoms: _377  and  _378
REMARK  156  A    between atoms: _378  and  _379
REMARK  157  A    between atoms: _379  and  _380
REMARK  158  A    between atoms: _384  and  _386
REMARK  159  A    between atoms: _386  and  _387
REMARK  160  A    between atoms: _386  and  _389
REMARK  161  A    between atoms: _389  and  _390
REMARK  162  A    between atoms: _393  and  _395
REMARK  163  A    between atoms: _395  and  _396
REMARK  164  A    between atoms: _399  and  _401
REMARK  165  A    between atoms: _401  and  _402
REMARK  166  A    between atoms: _401  and  _404
REMARK  167  A    between atoms: _404  and  _405
REMARK  168  A    between atoms: _405  and  _519
REMARK  169  A    between atoms: _406  and  _408
REMARK  170  A    between atoms: _408  and  _409
REMARK  171  A    between atoms: _408  and  _411
REMARK  172  A    between atoms: _411  and  _412
REMARK  173  A    between atoms: _412  and  _413
REMARK  174  A    between atoms: _413  and  _414
REMARK  175  A    between atoms: _414  and  _415
REMARK  176  A    between atoms: _419  and  _421
REMARK  177  A    between atoms: _421  and  _422
REMARK  178  A    between atoms: _424  and  _426
REMARK  179  A    between atoms: _426  and  _427
REMARK  180  A    between atoms: _426  and  _429
REMARK  181  A    between atoms: _429  and  _430
REMARK  182  A    between atoms: _433  and  _435
REMARK  183  A    between atoms: _435  and  _436
REMARK  184  A    between atoms: _435  and  _438
REMARK  185  A    between atoms: _438  and  _439
REMARK  186  A    between atoms: _441  and  _443
REMARK  187  A    between atoms: _443  and  _444
REMARK  188  A    between atoms: _446  and  _448
REMARK  189  A    between atoms: _448  and  _449
REMARK  190  A    between atoms: _451  and  _453
REMARK  191  A    between atoms: _453  and  _454
REMARK  192  A    between atoms: _453  and  _456
REMARK  193  A    between atoms: _456  and  _457
REMARK  194  A    between atoms: _460  and  _462
REMARK  195  A    between atoms: _462  and  _463
REMARK  196  A    between atoms: _462  and  _465
REMARK  197  A    between atoms: _465  and  _466
REMARK  198  A    between atoms: _469  and  _471
REMARK  199  A    between atoms: _471  and  _472
REMARK  200  A    between atoms: _471  and  _474
REMARK  201  A    between atoms: _474  and  _475
REMARK  202  A    between atoms: _477  and  _479
REMARK  203  A    between atoms: _479  and  _480
REMARK  204  A    between atoms: _479  and  _482
REMARK  205  A    between atoms: _482  and  _483
REMARK  206  A    between atoms: _493  and  _495
REMARK  207  A    between atoms: _495  and  _496
REMARK  208  A    between atoms: _498  and  _500
REMARK  209  A    between atoms: _500  and  _501
REMARK  210  A    between atoms: _500  and  _503
REMARK  211  A    between atoms: _503  and  _504
REMARK  212  A    between atoms: _504  and  _505
REMARK  213  A    between atoms: _508  and  _510
REMARK  214  A    between atoms: _510  and  _511
REMARK  215  A    between atoms: _513  and  _515
REMARK  216  A    between atoms: _515  and  _516
REMARK  217  A    between atoms: _515  and  _518
REMARK  218  A    between atoms: _518  and  _519
REMARK  219  A    between atoms: _520  and  _522
REMARK  220  A    between atoms: _522  and  _523
REMARK  221  A    between atoms: _526  and  _528
REMARK  222  A    between atoms: _528  and  _529
REMARK  223  A    between atoms: _528  and  _531
REMARK  224  A    between atoms: _531  and  _532
REMARK  225  A    between atoms: _532  and  _533
REMARK  226  A    between atoms: _538  and  _540
REMARK  227  A    between atoms: _540  and  _541
REMARK  228  A    between atoms: _540  and  _543
REMARK  229  A    between atoms: _543  and  _544
REMARK  230  A    between atoms: _544  and  _545
REMARK  231  A    between atoms: _545  and  _546
REMARK  232  A    between atoms: _556  and  _557
REMARK  233  A    between atoms: _562  and  _564
REMARK  234  A    between atoms: _564  and  _565
REMARK  235  A    between atoms: _567  and  _569
REMARK  236  A    between atoms: _569  and  _570
REMARK  237  A    between atoms: _569  and  _572
REMARK  238  A    between atoms: _575  and  _577
REMARK  239  A    between atoms: _577  and  _578
REMARK  240  A    between atoms: _577  and  _580
REMARK  241  A    between atoms: _580  and  _581
REMARK  242  A    between atoms: _586  and  _587
REMARK  243  A    between atoms: _589  and  _591
REMARK  244  A    between atoms: _591  and  _592
REMARK  245  A    between atoms: _591  and  _594
REMARK  246  A    between atoms: _594  and  _595
REMARK                            x       y       z     vdW  Elec       q    Type
REMARK                         _______ _______ _______ _____ _____    ______ ____
ROOT
ATOM      1  O   HOH     1      33.008  14.154  56.050  0.00  0.00    +0.000 OA
ENDROOT
TORSDOF 0
REMARK  Name = ../refined-set-2016/4crb/4crb_pocket.pdb
REMARK  246 active torsions:
REMARK  status: ('A' for Active; 'I' for Inactive)
REMARK    1  A    between atoms: _1  and  _5
REMARK    2  A    between atoms: _5  and  _6
REMARK    3  A    between atoms: _5  and  _8
REMARK    4  A    between atoms: _8  and  _9
REMARK    5  A    between atoms: _12  and  _14
REMARK    6  A    between atoms: _14  and  _15
REMARK    7  A    between atoms: _14  and  _17
REMARK    8  A    between atoms: _20  and  _22
REMARK    9  A    between atoms: _22  and  _23
REMARK   10  A    between atoms: _22  and  _25
REMARK   11  A    between atoms: _25  and  _26
REMARK   12  A    between atoms: _29  and  _31
REMARK   13  A    between atoms: _31  and  _32
REMARK   14  A    between atoms: _31  and  _34
REMARK   15  A    between atoms: _34  and  _35
REMARK   16  A    between atoms: _38  and  _40
REMARK   17  A    between atoms: _40  and  _41
REMARK   18  A    between atoms: _40  and  _43
REMARK   19  A    between atoms: _43  and  _44
REMARK   20  A    between atoms: _47  and  _49
REMARK   21  A    between atoms: _49  and  _50
REMARK   22  A    between atoms: _49  and  _52
REMARK   23  A    between atoms: _52  and  _53
REMARK   24  A    between atoms: _56  and  _58
REMARK   25  A    between atoms: _58  and  _59
REMARK   26  A    between atoms: _58  and  _61
REMARK   27  A    between atoms: _61  and  _62
REMARK   28  A    between atoms: _62  and  _63
REMARK   29  A    between atoms: _68  and  _70
REMARK   30  A    between atoms: _70  and  _71
REMARK   31  A    between atoms: _70  and  _73
REMARK   32  A    between atoms: _73  and  _74
REMARK   33  A    between atoms: _74  and  _75
REMARK   34  A    between atoms: _75  and  _76
REMARK   35  A    between atoms: _85  and  _87
REMARK   36  A    between atoms: _87  and  _88
REMARK   37  A    between atoms: _87  and  _90
REMARK   38  A    between atoms: _90  and  _91
REMARK   39  A    between atoms: _96  and  _98
REMARK   40  A    between atoms: _98  and  _99
REMARK   41  A    between atoms: _98  and  _101
REMARK   42  A    between atoms: _101  and  _102
REMARK   43  A    between atoms: _105  and  _107
REMARK   44  A    between atoms: _107  and  _108
REMARK   45  A    between atoms: _107  and  _110
REMARK   46  A    between atoms: _110  and  _111
REMARK   47  A    between atoms: _111  and  _146
REMARK   48  A    between atoms: _112  and  _114
REMARK   49  A    between atoms: _114  and  _115
REMARK   50  A    between atoms: _117  and  _119
REMARK   51  A    between atoms: _119  and  _120
REMARK   52  A    between atoms: _123  and  _125
REMARK   53  A    between atoms: _125  and  _126
REMARK   54  A    between atoms: _129  and  _131
REMARK   55  A    between atoms: _131  and  _132
REMARK   56  A    between atoms: _131  and  _134
REMARK   57  A    between atoms: _134  and  _135
REMARK   58  A    between atoms: _140  and  _142
REMARK   59  A    between atoms: _142  and  _143
REMARK   60  A    between atoms: _142  and  _145
REMARK   61  A    between atoms: _145  and  _146
REMARK   62  A    between atoms: _147  and  _149
REMARK   63  A    between atoms: _149  and  _150
REMARK   64  A    between atoms: _149  and  _152
REMARK   65  A    between atoms: _152  and  _153
REMARK   66  A    between atoms: _159  and  _161
REMARK   67  A    between atoms: _161  and  _162
REMARK   68  A    between atoms: _161  and  _164
REMARK   69  A    between atoms: _164  and  _165
REMARK   70  A    between atoms: _170  and  _171
REMARK   71  A    between atoms: _173  and  _175
REMARK   72  A    between atoms: _175  and  _176
REMARK   73  A    between atoms: _178  and  _180
REMARK   74  A    between atoms: _180  and  _181
REMARK   75  A    between atoms: _180  and  _183
REMARK   76  A    between atoms: _186  and  _188
REMARK   77  A    between atoms: _188  and  _189
REMARK   78  A    between atoms: _192  and  _194
REMARK   79  A    between atoms: _194  and  _195
REMARK   80  A    between atoms: _194  and  _197
REMARK   81  A    between atoms: _197  and  _198
REMARK   82  A    between atoms: _201  and  _203
REMARK   83  A    between atoms: _203  and  _204
REMARK   84  A    between atoms: _203  and  _206
REMARK   85  A    between atoms: _209  and  _211
REMARK   86  A    between atoms: _211  and  _212
REMARK   87  A    between atoms: _211  and  _214
REMARK   88  A    between atoms: _214  and  _215
REMARK   89  A    between atoms: _225  and  _227
REMARK   90  A    between atoms: _227  and  _228
REMARK   91  A    between atoms: _230  and  _232
REMARK   92  A    between atoms: _232  and  _233
REMARK   93  A    between atoms: _232  and  _235
REMARK   94  A    between atoms: _235  and  _236
REMARK   95  A    between atoms: _241  and  _242
REMARK   96  A    between atoms: _244  and  _246
REMARK   97  A    between atoms: _246  and  _247
REMARK   98  A    between atoms: _246  and  _249
REMARK   99  A    between atoms: _249  and  _250
REMARK  100  A    between atoms: _250  and  _251
REMARK  101  A    between atoms: _251  and  _252
REMARK  102  A    between atoms: _252  and  _253
REMARK  103  A    between atoms: _257  and  _259
REMARK  104  A    between atoms: _259  and  _260
REMARK  105  A    between atoms: _259  and  _262
REMARK  106  A    between atoms: _262  and  _263
REMARK  107  A    between atoms: _266  and  _268
REMARK  108  A    between atoms: _268  and  _269
REMARK  109  A    between atoms: _268  and  _271
REMARK  110  A    between atoms: _271  and  _272
REMARK  111  A    between atoms: _272  and  _273
REMARK  112  A    between atoms: _273  and  _274
REMARK  113  A    between atoms: _283  and  _285
REMARK  114  A    between atoms: _285  and  _286
REMARK  115  A    between atoms: _285  and  _288
REMARK  116  A    between atoms: _288  and  _289
REMARK  117  A    between atoms: _292  and  _294
REMARK  118  A    between atoms: _294  and  _295
REMARK  119  A    between atoms: _294  and  _297
REMARK  120  A    between atoms: _297  and  _298
REMARK  121  A    between atoms: _298  and  _299
REMARK  122  A    between atoms: _299  and  _300
REMARK  123  A    between atoms: _300  and  _301
REMARK  124  A    between atoms: _305  and  _307
REMARK  125  A    between atoms: _307  and  _308
REMARK  126  A    between atoms: _307  and  _310
REMARK  127  A    between atoms: _310  and  _311
REMARK  128  A    between atoms: _314  and  _316
REMARK  129  A    between atoms: _316  and  _317
REMARK  130  A    between atoms: _316  and  _319
REMARK  131  A    between atoms: _319  and  _320
REMARK  132  A    between atoms: _320  and  _321
REMARK  133  A    between atoms: _326  and  _328
REMARK  134  A    between atoms: _328  and  _329
REMARK  135  A    between atoms: _328  and  _331
REMARK  136  A    between atoms: _331  and  _332
REMARK  137  A    between atoms: _335  and  _337
REMARK  138  A    between atoms: _337  and  _338
REMARK  139  A    between atoms: _337  and  _340
REMARK  140  A    between atoms: _340  and  _341
REMARK  141  A    between atoms: _346  and  _347
REMARK  142  A    between atoms: _349  and  _351
REMARK  143  A    between atoms: _351  and  _352
REMARK  144  A    between atoms: _351  and  _354
REMARK  145  A    between atoms: _354  and  _355
REMARK  146  A    between atoms: _358  and  _360
REMARK  147  A    between atoms: _360  and  _361
REMARK  148  A    between atoms: _360  and  _363
REMARK  149  A    between atoms: _365  and  _367
REMARK  150  A    between atoms: _367  and  _368
REMARK  151  A    between atoms: _371  and  _373
REMARK  152  A    between atoms: _373  and  _374
REMARK  153  A    between atoms: _373  and  _376
REMARK  154  A    between atoms: _376  and  _377
REMARK  155  A    between atoms: _377  and  _378
REMARK  156  A    between atoms: _378  and  _379
REMARK  157  A    between atoms: _379  and  _380
REMARK  158  A    between atoms: _384  and  _386
REMARK  159  A    between atoms: _386  and  _387
REMARK  160  A    between atoms: _386  and  _389
REMARK  161  A    between atoms: _389  and  _390
REMARK  162  A    between atoms: _393  and  _395
REMARK  163  A    between atoms: _395  and  _396
REMARK  164  A    between atoms: _399  and  _401
REMARK  165  A    between atoms: _401  and  _402
REMARK  166  A    between atoms: _401  and  _404
REMARK  167  A    between atoms: _404  and  _405
REMARK  168  A    between atoms: _405  and  _519
REMARK  169  A    between atoms: _406  and  _408
REMARK  170  A    between atoms: _408  and  _409
REMARK  171  A    between atoms: _408  and  _411
REMARK  172  A    between atoms: _411  and  _412
REMARK  173  A    between atoms: _412  and  _413
REMARK  174  A    between atoms: _413  and  _414
REMARK  175  A    between atoms: _414  and  _415
REMARK  176  A    between atoms: _419  and  _421
REMARK  177  A    between atoms: _421  and  _422
REMARK  178  A    between atoms: _424  and  _426
REMARK  179  A    between atoms: _426  and  _427
REMARK  180  A    between atoms: _426  and  _429
REMARK  181  A    between atoms: _429  and  _430
REMARK  182  A    between atoms: _433  and  _435
REMARK  183  A    between atoms: _435  and  _436
REMARK  184  A    between atoms: _435  and  _438
REMARK  185  A    between atoms: _438  and  _439
REMARK  186  A    between atoms: _441  and  _443
REMARK  187  A    between atoms: _443  and  _444
REMARK  188  A    between atoms: _446  and  _448
REMARK  189  A    between atoms: _448  and  _449
REMARK  190  A    between atoms: _451  and  _453
REMARK  191  A    between atoms: _453  and  _454
REMARK  192  A    between atoms: _453  and  _456
REMARK  193  A    between atoms: _456  and  _457
REMARK  194  A    between atoms: _460  and  _462
REMARK  195  A    between atoms: _462  and  _463
REMARK  196  A    between atoms: _462  and  _465
REMARK  197  A    between atoms: _465  and  _466
REMARK  198  A    between atoms: _469  and  _471
REMARK  199  A    between atoms: _471  and  _472
REMARK  200  A    between atoms: _471  and  _474
REMARK  201  A    between atoms: _474  and  _475
REMARK  202  A    between atoms: _477  and  _479
REMARK  203  A    between atoms: _479  and  _480
REMARK  204  A    between atoms: _479  and  _482
REMARK  205  A    between atoms: _482  and  _483
REMARK  206  A    between atoms: _493  and  _495
REMARK  207  A    between atoms: _495  and  _496
REMARK  208  A    between atoms: _498  and  _500
REMARK  209  A    between atoms: _500  and  _501
REMARK  210  A    between atoms: _500  and  _503
REMARK  211  A    between atoms: _503  and  _504
REMARK  212  A    between atoms: _504  and  _505
REMARK  213  A    between atoms: _508  and  _510
REMARK  214  A    between atoms: _510  and  _511
REMARK  215  A    between atoms: _513  and  _515
REMARK  216  A    between atoms: _515  and  _516
REMARK  217  A    between atoms: _515  and  _518
REMARK  218  A    between atoms: _518  and  _519
REMARK  219  A    between atoms: _520  and  _522
REMARK  220  A    between atoms: _522  and  _523
REMARK  221  A    between atoms: _526  and  _528
REMARK  222  A    between atoms: _528  and  _529
REMARK  223  A    between atoms: _528  and  _531
REMARK  224  A    between atoms: _531  and  _532
REMARK  225  A    between atoms: _532  and  _533
REMARK  226  A    between atoms: _538  and  _540
REMARK  227  A    between atoms: _540  and  _541
REMARK  228  A    between atoms: _540  and  _543
REMARK  229  A    between atoms: _543  and  _544
REMARK  230  A    between atoms: _544  and  _545
REMARK  231  A    between atoms: _545  and  _546
REMARK  232  A    between atoms: _556  and  _557
REMARK  233  A    between atoms: _562  and  _564
REMARK  234  A    between atoms: _564  and  _565
REMARK  235  A    between atoms: _567  and  _569
REMARK  236  A    between atoms: _569  and  _570
REMARK  237  A    between atoms: _569  and  _572
REMARK  238  A    between atoms: _575  and  _577
REMARK  239  A    between atoms: _577  and  _578
REMARK  240  A    between atoms: _577  and  _580
REMARK  241  A    between atoms: _580  and  _581
REMARK  242  A    between atoms: _586  and  _587
REMARK  243  A    between atoms: _589  and  _591
REMARK  244  A    between atoms: _591  and  _592
REMARK  245  A    between atoms: _591  and  _594
REMARK  246  A    between atoms: _594  and  _595
REMARK                            x       y       z     vdW  Elec       q    Type
REMARK                         _______ _______ _______ _____ _____    ______ ____
ROOT
ATOM      1  O   HOH     1      34.776  -1.287  54.014  0.00  0.00    +0.000 OA
ENDROOT
TORSDOF 0
REMARK  Name = ../refined-set-2016/4crb/4crb_pocket.pdb
REMARK  246 active torsions:
REMARK  status: ('A' for Active; 'I' for Inactive)
REMARK    1  A    between atoms: _1  and  _5
REMARK    2  A    between atoms: _5  and  _6
REMARK    3  A    between atoms: _5  and  _8
REMARK    4  A    between atoms: _8  and  _9
REMARK    5  A    between atoms: _12  and  _14
REMARK    6  A    between atoms: _14  and  _15
REMARK    7  A    between atoms: _14  and  _17
REMARK    8  A    between atoms: _20  and  _22
REMARK    9  A    between atoms: _22  and  _23
REMARK   10  A    between atoms: _22  and  _25
REMARK   11  A    between atoms: _25  and  _26
REMARK   12  A    between atoms: _29  and  _31
REMARK   13  A    between atoms: _31  and  _32
REMARK   14  A    between atoms: _31  and  _34
REMARK   15  A    between atoms: _34  and  _35
REMARK   16  A    between atoms: _38  and  _40
REMARK   17  A    between atoms: _40  and  _41
REMARK   18  A    between atoms: _40  and  _43
REMARK   19  A    between atoms: _43  and  _44
REMARK   20  A    between atoms: _47  and  _49
REMARK   21  A    between atoms: _49  and  _50
REMARK   22  A    between atoms: _49  and  _52
REMARK   23  A    between atoms: _52  and  _53
REMARK   24  A    between atoms: _56  and  _58
REMARK   25  A    between atoms: _58  and  _59
REMARK   26  A    between atoms: _58  and  _61
REMARK   27  A    between atoms: _61  and  _62
REMARK   28  A    between atoms: _62  and  _63
REMARK   29  A    between atoms: _68  and  _70
REMARK   30  A    between atoms: _70  and  _71
REMARK   31  A    between atoms: _70  and  _73
REMARK   32  A    between atoms: _73  and  _74
REMARK   33  A    between atoms: _74  and  _75
REMARK   34  A    between atoms: _75  and  _76
REMARK   35  A    between atoms: _85  and  _87
REMARK   36  A    between atoms: _87  and  _88
REMARK   37  A    between atoms: _87  and  _90
REMARK   38  A    between atoms: _90  and  _91
REMARK   39  A    between atoms: _96  and  _98
REMARK   40  A    between atoms: _98  and  _99
REMARK   41  A    between atoms: _98  and  _101
REMARK   42  A    between atoms: _101  and  _102
REMARK   43  A    between atoms: _105  and  _107
REMARK   44  A    between atoms: _107  and  _108
REMARK   45  A    between atoms: _107  and  _110
REMARK   46  A    between atoms: _110  and  _111
REMARK   47  A    between atoms: _111  and  _146
REMARK   48  A    between atoms: _112  and  _114
REMARK   49  A    between atoms: _114  and  _115
REMARK   50  A    between atoms: _117  and  _119
REMARK   51  A    between atoms: _119  and  _120
REMARK   52  A    between atoms: _123  and  _125
REMARK   53  A    between atoms: _125  and  _126
REMARK   54  A    between atoms: _129  and  _131
REMARK   55  A    between atoms: _131  and  _132
REMARK   56  A    between atoms: _131  and  _134
REMARK   57  A    between atoms: _134  and  _135
REMARK   58  A    between atoms: _140  and  _142
REMARK   59  A    between atoms: _142  and  _143
REMARK   60  A    between atoms: _142  and  _145
REMARK   61  A    between atoms: _145  and  _146
REMARK   62  A    between atoms: _147  and  _149
REMARK   63  A    between atoms: _149  and  _150
REMARK   64  A    between atoms: _149  and  _152
REMARK   65  A    between atoms: _152  and  _153
REMARK   66  A    between atoms: _159  and  _161
REMARK   67  A    between atoms: _161  and  _162
REMARK   68  A    between atoms: _161  and  _164
REMARK   69  A    between atoms: _164  and  _165
REMARK   70  A    between atoms: _170  and  _171
REMARK   71  A    between atoms: _173  and  _175
REMARK   72  A    between atoms: _175  and  _176
REMARK   73  A    between atoms: _178  and  _180
REMARK   74  A    between atoms: _180  and  _181
REMARK   75  A    between atoms: _180  and  _183
REMARK   76  A    between atoms: _186  and  _188
REMARK   77  A    between atoms: _188  and  _189
REMARK   78  A    between atoms: _192  and  _194
REMARK   79  A    between atoms: _194  and  _195
REMARK   80  A    between atoms: _194  and  _197
REMARK   81  A    between atoms: _197  and  _198
REMARK   82  A    between atoms: _201  and  _203
REMARK   83  A    between atoms: _203  and  _204
REMARK   84  A    between atoms: _203  and  _206
REMARK   85  A    between atoms: _209  and  _211
REMARK   86  A    between atoms: _211  and  _212
REMARK   87  A    between atoms: _211  and  _214
REMARK   88  A    between atoms: _214  and  _215
REMARK   89  A    between atoms: _225  and  _227
REMARK   90  A    between atoms: _227  and  _228
REMARK   91  A    between atoms: _230  and  _232
REMARK   92  A    between atoms: _232  and  _233
REMARK   93  A    between atoms: _232  and  _235
REMARK   94  A    between atoms: _235  and  _236
REMARK   95  A    between atoms: _241  and  _242
REMARK   96  A    between atoms: _244  and  _246
REMARK   97  A    between atoms: _246  and  _247
REMARK   98  A    between atoms: _246  and  _249
REMARK   99  A    between atoms: _249  and  _250
REMARK  100  A    between atoms: _250  and  _251
REMARK  101  A    between atoms: _251  and  _252
REMARK  102  A    between atoms: _252  and  _253
REMARK  103  A    between atoms: _257  and  _259
REMARK  104  A    between atoms: _259  and  _260
REMARK  105  A    between atoms: _259  and  _262
REMARK  106  A    between atoms: _262  and  _263
REMARK  107  A    between atoms: _266  and  _268
REMARK  108  A    between atoms: _268  and  _269
REMARK  109  A    between atoms: _268  and  _271
REMARK  110  A    between atoms: _271  and  _272
REMARK  111  A    between atoms: _272  and  _273
REMARK  112  A    between atoms: _273  and  _274
REMARK  113  A    between atoms: _283  and  _285
REMARK  114  A    between atoms: _285  and  _286
REMARK  115  A    between atoms: _285  and  _288
REMARK  116  A    between atoms: _288  and  _289
REMARK  117  A    between atoms: _292  and  _294
REMARK  118  A    between atoms: _294  and  _295
REMARK  119  A    between atoms: _294  and  _297
REMARK  120  A    between atoms: _297  and  _298
REMARK  121  A    between atoms: _298  and  _299
REMARK  122  A    between atoms: _299  and  _300
REMARK  123  A    between atoms: _300  and  _301
REMARK  124  A    between atoms: _305  and  _307
REMARK  125  A    between atoms: _307  and  _308
REMARK  126  A    between atoms: _307  and  _310
REMARK  127  A    between atoms: _310  and  _311
REMARK  128  A    between atoms: _314  and  _316
REMARK  129  A    between atoms: _316  and  _317
REMARK  130  A    between atoms: _316  and  _319
REMARK  131  A    between atoms: _319  and  _320
REMARK  132  A    between atoms: _320  and  _321
REMARK  133  A    between atoms: _326  and  _328
REMARK  134  A    between atoms: _328  and  _329
REMARK  135  A    between atoms: _328  and  _331
REMARK  136  A    between atoms: _331  and  _332
REMARK  137  A    between atoms: _335  and  _337
REMARK  138  A    between atoms: _337  and  _338
REMARK  139  A    between atoms: _337  and  _340
REMARK  140  A    between atoms: _340  and  _341
REMARK  141  A    between atoms: _346  and  _347
REMARK  142  A    between atoms: _349  and  _351
REMARK  143  A    between atoms: _351  and  _352
REMARK  144  A    between atoms: _351  and  _354
REMARK  145  A    between atoms: _354  and  _355
REMARK  146  A    between atoms: _358  and  _360
REMARK  147  A    between atoms: _360  and  _361
REMARK  148  A    between atoms: _360  and  _363
REMARK  149  A    between atoms: _365  and  _367
REMARK  150  A    between atoms: _367  and  _368
REMARK  151  A    between atoms: _371  and  _373
REMARK  152  A    between atoms: _373  and  _374
REMARK  153  A    between atoms: _373  and  _376
REMARK  154  A    between atoms: _376  and  _377
REMARK  155  A    between atoms: _377  and  _378
REMARK  156  A    between atoms: _378  and  _379
REMARK  157  A    between atoms: _379  and  _380
REMARK  158  A    between atoms: _384  and  _386
REMARK  159  A    between atoms: _386  and  _387
REMARK  160  A    between atoms: _386  and  _389
REMARK  161  A    between atoms: _389  and  _390
REMARK  162  A    between atoms: _393  and  _395
REMARK  163  A    between atoms: _395  and  _396
REMARK  164  A    between atoms: _399  and  _401
REMARK  165  A    between atoms: _401  and  _402
REMARK  166  A    between atoms: _401  and  _404
REMARK  167  A    between atoms: _404  and  _405
REMARK  168  A    between atoms: _405  and  _519
REMARK  169  A    between atoms: _406  and  _408
REMARK  170  A    between atoms: _408  and  _409
REMARK  171  A    between atoms: _408  and  _411
REMARK  172  A    between atoms: _411  and  _412
REMARK  173  A    between atoms: _412  and  _413
REMARK  174  A    between atoms: _413  and  _414
REMARK  175  A    between atoms: _414  and  _415
REMARK  176  A    between atoms: _419  and  _421
REMARK  177  A    between atoms: _421  and  _422
REMARK  178  A    between atoms: _424  and  _426
REMARK  179  A    between atoms: _426  and  _427
REMARK  180  A    between atoms: _426  and  _429
REMARK  181  A    between atoms: _429  and  _430
REMARK  182  A    between atoms: _433  and  _435
REMARK  183  A    between atoms: _435  and  _436
REMARK  184  A    between atoms: _435  and  _438
REMARK  185  A    between atoms: _438  and  _439
REMARK  186  A    between atoms: _441  and  _443
REMARK  187  A    between atoms: _443  and  _444
REMARK  188  A    between atoms: _446  and  _448
REMARK  189  A    between atoms: _448  and  _449
REMARK  190  A    between atoms: _451  and  _453
REMARK  191  A    between atoms: _453  and  _454
REMARK  192  A    between atoms: _453  and  _456
REMARK  193  A    between atoms: _456  and  _457
REMARK  194  A    between atoms: _460  and  _462
REMARK  195  A    between atoms: _462  and  _463
REMARK  196  A    between atoms: _462  and  _465
REMARK  197  A    between atoms: _465  and  _466
REMARK  198  A    between atoms: _469  and  _471
REMARK  199  A    between atoms: _471  and  _472
REMARK  200  A    between atoms: _471  and  _474
REMARK  201  A    between atoms: _474  and  _475
REMARK  202  A    between atoms: _477  and  _479
REMARK  203  A    between atoms: _479  and  _480
REMARK  204  A    between atoms: _479  and  _482
REMARK  205  A    between atoms: _482  and  _483
REMARK  206  A    between atoms: _493  and  _495
REMARK  207  A    between atoms: _495  and  _496
REMARK  208  A    between atoms: _498  and  _500
REMARK  209  A    between atoms: _500  and  _501
REMARK  210  A    between atoms: _500  and  _503
REMARK  211  A    between atoms: _503  and  _504
REMARK  212  A    between atoms: _504  and  _505
REMARK  213  A    between atoms: _508  and  _510
REMARK  214  A    between atoms: _510  and  _511
REMARK  215  A    between atoms: _513  and  _515
REMARK  216  A    between atoms: _515  and  _516
REMARK  217  A    between atoms: _515  and  _518
REMARK  218  A    between atoms: _518  and  _519
REMARK  219  A    between atoms: _520  and  _522
REMARK  220  A    between atoms: _522  and  _523
REMARK  221  A    between atoms: _526  and  _528
REMARK  222  A    between atoms: _528  and  _529
REMARK  223  A    between atoms: _528  and  _531
REMARK  224  A    between atoms: _531  and  _532
REMARK  225  A    between atoms: _532  and  _533
REMARK  226  A    between atoms: _538  and  _540
REMARK  227  A    between atoms: _540  and  _541
REMARK  228  A    between atoms: _540  and  _543
REMARK  229  A    between atoms: _543  and  _544
REMARK  230  A    between atoms: _544  and  _545
REMARK  231  A    between atoms: _545  and  _546
REMARK  232  A    between atoms: _556  and  _557
REMARK  233  A    between atoms: _562  and  _564
REMARK  234  A    between atoms: _564  and  _565
REMARK  235  A    between atoms: _567  and  _569
REMARK  236  A    between atoms: _569  and  _570
REMARK  237  A    between atoms: _569  and  _572
REMARK  238  A    between atoms: _575  and  _577
REMARK  239  A    between atoms: _577  and  _578
REMARK  240  A    between atoms: _577  and  _580
REMARK  241  A    between atoms: _580  and  _581
REMARK  242  A    between atoms: _586  and  _587
REMARK  243  A    between atoms: _589  and  _591
REMARK  244  A    between atoms: _591  and  _592
REMARK  245  A    between atoms: _591  and  _594
REMARK  246  A    between atoms: _594  and  _595
REMARK                            x       y       z     vdW  Elec       q    Type
REMARK                         _______ _______ _______ _____ _____    ______ ____
ROOT
ATOM      1  O   HOH     1      25.926  20.065  52.976  0.00  0.00    +0.000 OA
ENDROOT
TORSDOF 0
REMARK  Name = ../refined-set-2016/4crb/4crb_pocket.pdb
REMARK  246 active torsions:
REMARK  status: ('A' for Active; 'I' for Inactive)
REMARK    1  A    between atoms: _1  and  _5
REMARK    2  A    between atoms: _5  and  _6
REMARK    3  A    between atoms: _5  and  _8
REMARK    4  A    between atoms: _8  and  _9
REMARK    5  A    between atoms: _12  and  _14
REMARK    6  A    between atoms: _14  and  _15
REMARK    7  A    between atoms: _14  and  _17
REMARK    8  A    between atoms: _20  and  _22
REMARK    9  A    between atoms: _22  and  _23
REMARK   10  A    between atoms: _22  and  _25
REMARK   11  A    between atoms: _25  and  _26
REMARK   12  A    between atoms: _29  and  _31
REMARK   13  A    between atoms: _31  and  _32
REMARK   14  A    between atoms: _31  and  _34
REMARK   15  A    between atoms: _34  and  _35
REMARK   16  A    between atoms: _38  and  _40
REMARK   17  A    between atoms: _40  and  _41
REMARK   18  A    between atoms: _40  and  _43
REMARK   19  A    between atoms: _43  and  _44
REMARK   20  A    between atoms: _47  and  _49
REMARK   21  A    between atoms: _49  and  _50
REMARK   22  A    between atoms: _49  and  _52
REMARK   23  A    between atoms: _52  and  _53
REMARK   24  A    between atoms: _56  and  _58
REMARK   25  A    between atoms: _58  and  _59
REMARK   26  A    between atoms: _58  and  _61
REMARK   27  A    between atoms: _61  and  _62
REMARK   28  A    between atoms: _62  and  _63
REMARK   29  A    between atoms: _68  and  _70
REMARK   30  A    between atoms: _70  and  _71
REMARK   31  A    between atoms: _70  and  _73
REMARK   32  A    between atoms: _73  and  _74
REMARK   33  A    between atoms: _74  and  _75
REMARK   34  A    between atoms: _75  and  _76
REMARK   35  A    between atoms: _85  and  _87
REMARK   36  A    between atoms: _87  and  _88
REMARK   37  A    between atoms: _87  and  _90
REMARK   38  A    between atoms: _90  and  _91
REMARK   39  A    between atoms: _96  and  _98
REMARK   40  A    between atoms: _98  and  _99
REMARK   41  A    between atoms: _98  and  _101
REMARK   42  A    between atoms: _101  and  _102
REMARK   43  A    between atoms: _105  and  _107
REMARK   44  A    between atoms: _107  and  _108
REMARK   45  A    between atoms: _107  and  _110
REMARK   46  A    between atoms: _110  and  _111
REMARK   47  A    between atoms: _111  and  _146
REMARK   48  A    between atoms: _112  and  _114
REMARK   49  A    between atoms: _114  and  _115
REMARK   50  A    between atoms: _117  and  _119
REMARK   51  A    between atoms: _119  and  _120
REMARK   52  A    between atoms: _123  and  _125
REMARK   53  A    between atoms: _125  and  _126
REMARK   54  A    between atoms: _129  and  _131
REMARK   55  A    between atoms: _131  and  _132
REMARK   56  A    between atoms: _131  and  _134
REMARK   57  A    between atoms: _134  and  _135
REMARK   58  A    between atoms: _140  and  _142
REMARK   59  A    between atoms: _142  and  _143
REMARK   60  A    between atoms: _142  and  _145
REMARK   61  A    between atoms: _145  and  _146
REMARK   62  A    between atoms: _147  and  _149
REMARK   63  A    between atoms: _149  and  _150
REMARK   64  A    between atoms: _149  and  _152
REMARK   65  A    between atoms: _152  and  _153
REMARK   66  A    between atoms: _159  and  _161
REMARK   67  A    between atoms: _161  and  _162
REMARK   68  A    between atoms: _161  and  _164
REMARK   69  A    between atoms: _164  and  _165
REMARK   70  A    between atoms: _170  and  _171
REMARK   71  A    between atoms: _173  and  _175
REMARK   72  A    between atoms: _175  and  _176
REMARK   73  A    between atoms: _178  and  _180
REMARK   74  A    between atoms: _180  and  _181
REMARK   75  A    between atoms: _180  and  _183
REMARK   76  A    between atoms: _186  and  _188
REMARK   77  A    between atoms: _188  and  _189
REMARK   78  A    between atoms: _192  and  _194
REMARK   79  A    between atoms: _194  and  _195
REMARK   80  A    between atoms: _194  and  _197
REMARK   81  A    between atoms: _197  and  _198
REMARK   82  A    between atoms: _201  and  _203
REMARK   83  A    between atoms: _203  and  _204
REMARK   84  A    between atoms: _203  and  _206
REMARK   85  A    between atoms: _209  and  _211
REMARK   86  A    between atoms: _211  and  _212
REMARK   87  A    between atoms: _211  and  _214
REMARK   88  A    between atoms: _214  and  _215
REMARK   89  A    between atoms: _225  and  _227
REMARK   90  A    between atoms: _227  and  _228
REMARK   91  A    between atoms: _230  and  _232
REMARK   92  A    between atoms: _232  and  _233
REMARK   93  A    between atoms: _232  and  _235
REMARK   94  A    between atoms: _235  and  _236
REMARK   95  A    between atoms: _241  and  _242
REMARK   96  A    between atoms: _244  and  _246
REMARK   97  A    between atoms: _246  and  _247
REMARK   98  A    between atoms: _246  and  _249
REMARK   99  A    between atoms: _249  and  _250
REMARK  100  A    between atoms: _250  and  _251
REMARK  101  A    between atoms: _251  and  _252
REMARK  102  A    between atoms: _252  and  _253
REMARK  103  A    between atoms: _257  and  _259
REMARK  104  A    between atoms: _259  and  _260
REMARK  105  A    between atoms: _259  and  _262
REMARK  106  A    between atoms: _262  and  _263
REMARK  107  A    between atoms: _266  and  _268
REMARK  108  A    between atoms: _268  and  _269
REMARK  109  A    between atoms: _268  and  _271
REMARK  110  A    between atoms: _271  and  _272
REMARK  111  A    between atoms: _272  and  _273
REMARK  112  A    between atoms: _273  and  _274
REMARK  113  A    between atoms: _283  and  _285
REMARK  114  A    between atoms: _285  and  _286
REMARK  115  A    between atoms: _285  and  _288
REMARK  116  A    between atoms: _288  and  _289
REMARK  117  A    between atoms: _292  and  _294
REMARK  118  A    between atoms: _294  and  _295
REMARK  119  A    between atoms: _294  and  _297
REMARK  120  A    between atoms: _297  and  _298
REMARK  121  A    between atoms: _298  and  _299
REMARK  122  A    between atoms: _299  and  _300
REMARK  123  A    between atoms: _300  and  _301
REMARK  124  A    between atoms: _305  and  _307
REMARK  125  A    between atoms: _307  and  _308
REMARK  126  A    between atoms: _307  and  _310
REMARK  127  A    between atoms: _310  and  _311
REMARK  128  A    between atoms: _314  and  _316
REMARK  129  A    between atoms: _316  and  _317
REMARK  130  A    between atoms: _316  and  _319
REMARK  131  A    between atoms: _319  and  _320
REMARK  132  A    between atoms: _320  and  _321
REMARK  133  A    between atoms: _326  and  _328
REMARK  134  A    between atoms: _328  and  _329
REMARK  135  A    between atoms: _328  and  _331
REMARK  136  A    between atoms: _331  and  _332
REMARK  137  A    between atoms: _335  and  _337
REMARK  138  A    between atoms: _337  and  _338
REMARK  139  A    between atoms: _337  and  _340
REMARK  140  A    between atoms: _340  and  _341
REMARK  141  A    between atoms: _346  and  _347
REMARK  142  A    between atoms: _349  and  _351
REMARK  143  A    between atoms: _351  and  _352
REMARK  144  A    between atoms: _351  and  _354
REMARK  145  A    between atoms: _354  and  _355
REMARK  146  A    between atoms: _358  and  _360
REMARK  147  A    between atoms: _360  and  _361
REMARK  148  A    between atoms: _360  and  _363
REMARK  149  A    between atoms: _365  and  _367
REMARK  150  A    between atoms: _367  and  _368
REMARK  151  A    between atoms: _371  and  _373
REMARK  152  A    between atoms: _373  and  _374
REMARK  153  A    between atoms: _373  and  _376
REMARK  154  A    between atoms: _376  and  _377
REMARK  155  A    between atoms: _377  and  _378
REMARK  156  A    between atoms: _378  and  _379
REMARK  157  A    between atoms: _379  and  _380
REMARK  158  A    between atoms: _384  and  _386
REMARK  159  A    between atoms: _386  and  _387
REMARK  160  A    between atoms: _386  and  _389
REMARK  161  A    between atoms: _389  and  _390
REMARK  162  A    between atoms: _393  and  _395
REMARK  163  A    between atoms: _395  and  _396
REMARK  164  A    between atoms: _399  and  _401
REMARK  165  A    between atoms: _401  and  _402
REMARK  166  A    between atoms: _401  and  _404
REMARK  167  A    between atoms: _404  and  _405
REMARK  168  A    between atoms: _405  and  _519
REMARK  169  A    between atoms: _406  and  _408
REMARK  170  A    between atoms: _408  and  _409
REMARK  171  A    between atoms: _408  and  _411
REMARK  172  A    between atoms: _411  and  _412
REMARK  173  A    between atoms: _412  and  _413
REMARK  174  A    between atoms: _413  and  _414
REMARK  175  A    between atoms: _414  and  _415
REMARK  176  A    between atoms: _419  and  _421
REMARK  177  A    between atoms: _421  and  _422
REMARK  178  A    between atoms: _424  and  _426
REMARK  179  A    between atoms: _426  and  _427
REMARK  180  A    between atoms: _426  and  _429
REMARK  181  A    between atoms: _429  and  _430
REMARK  182  A    between atoms: _433  and  _435
REMARK  183  A    between atoms: _435  and  _436
REMARK  184  A    between atoms: _435  and  _438
REMARK  185  A    between atoms: _438  and  _439
REMARK  186  A    between atoms: _441  and  _443
REMARK  187  A    between atoms: _443  and  _444
REMARK  188  A    between atoms: _446  and  _448
REMARK  189  A    between atoms: _448  and  _449
REMARK  190  A    between atoms: _451  and  _453
REMARK  191  A    between atoms: _453  and  _454
REMARK  192  A    between atoms: _453  and  _456
REMARK  193  A    between atoms: _456  and  _457
REMARK  194  A    between atoms: _460  and  _462
REMARK  195  A    between atoms: _462  and  _463
REMARK  196  A    between atoms: _462  and  _465
REMARK  197  A    between atoms: _465  and  _466
REMARK  198  A    between atoms: _469  and  _471
REMARK  199  A    between atoms: _471  and  _472
REMARK  200  A    between atoms: _471  and  _474
REMARK  201  A    between atoms: _474  and  _475
REMARK  202  A    between atoms: _477  and  _479
REMARK  203  A    between atoms: _479  and  _480
REMARK  204  A    between atoms: _479  and  _482
REMARK  205  A    between atoms: _482  and  _483
REMARK  206  A    between atoms: _493  and  _495
REMARK  207  A    between atoms: _495  and  _496
REMARK  208  A    between atoms: _498  and  _500
REMARK  209  A    between atoms: _500  and  _501
REMARK  210  A    between atoms: _500  and  _503
REMARK  211  A    between atoms: _503  and  _504
REMARK  212  A    between atoms: _504  and  _505
REMARK  213  A    between atoms: _508  and  _510
REMARK  214  A    between atoms: _510  and  _511
REMARK  215  A    between atoms: _513  and  _515
REMARK  216  A    between atoms: _515  and  _516
REMARK  217  A    between atoms: _515  and  _518
REMARK  218  A    between atoms: _518  and  _519
REMARK  219  A    between atoms: _520  and  _522
REMARK  220  A    between atoms: _522  and  _523
REMARK  221  A    between atoms: _526  and  _528
REMARK  222  A    between atoms: _528  and  _529
REMARK  223  A    between atoms: _528  and  _531
REMARK  224  A    between atoms: _531  and  _532
REMARK  225  A    between atoms: _532  and  _533
REMARK  226  A    between atoms: _538  and  _540
REMARK  227  A    between atoms: _540  and  _541
REMARK  228  A    between atoms: _540  and  _543
REMARK  229  A    between atoms: _543  and  _544
REMARK  230  A    between atoms: _544  and  _545
REMARK  231  A    between atoms: _545  and  _546
REMARK  232  A    between atoms: _556  and  _557
REMARK  233  A    between atoms: _562  and  _564
REMARK  234  A    between atoms: _564  and  _565
REMARK  235  A    between atoms: _567  and  _569
REMARK  236  A    between atoms: _569  and  _570
REMARK  237  A    between atoms: _569  and  _572
REMARK  238  A    between atoms: _575  and  _577
REMARK  239  A    between atoms: _577  and  _578
REMARK  240  A    between atoms: _577  and  _580
REMARK  241  A    between atoms: _580  and  _581
REMARK  242  A    between atoms: _586  and  _587
REMARK  243  A    between atoms: _589  and  _591
REMARK  244  A    between atoms: _591  and  _592
REMARK  245  A    between atoms: _591  and  _594
REMARK  246  A    between atoms: _594  and  _595
REMARK                            x       y       z     vdW  Elec       q    Type
REMARK                         _______ _______ _______ _____ _____    ______ ____
ROOT
ATOM      1  O   HOH     1      25.793   7.621  42.987  0.00  0.00    +0.000 OA
ENDROOT
TORSDOF 0
REMARK  Name = ../refined-set-2016/4crb/4crb_pocket.pdb
REMARK  246 active torsions:
REMARK  status: ('A' for Active; 'I' for Inactive)
REMARK    1  A    between atoms: _1  and  _5
REMARK    2  A    between atoms: _5  and  _6
REMARK    3  A    between atoms: _5  and  _8
REMARK    4  A    between atoms: _8  and  _9
REMARK    5  A    between atoms: _12  and  _14
REMARK    6  A    between atoms: _14  and  _15
REMARK    7  A    between atoms: _14  and  _17
REMARK    8  A    between atoms: _20  and  _22
REMARK    9  A    between atoms: _22  and  _23
REMARK   10  A    between atoms: _22  and  _25
REMARK   11  A    between atoms: _25  and  _26
REMARK   12  A    between atoms: _29  and  _31
REMARK   13  A    between atoms: _31  and  _32
REMARK   14  A    between atoms: _31  and  _34
REMARK   15  A    between atoms: _34  and  _35
REMARK   16  A    between atoms: _38  and  _40
REMARK   17  A    between atoms: _40  and  _41
REMARK   18  A    between atoms: _40  and  _43
REMARK   19  A    between atoms: _43  and  _44
REMARK   20  A    between atoms: _47  and  _49
REMARK   21  A    between atoms: _49  and  _50
REMARK   22  A    between atoms: _49  and  _52
REMARK   23  A    between atoms: _52  and  _53
REMARK   24  A    between atoms: _56  and  _58
REMARK   25  A    between atoms: _58  and  _59
REMARK   26  A    between atoms: _58  and  _61
REMARK   27  A    between atoms: _61  and  _62
REMARK   28  A    between atoms: _62  and  _63
REMARK   29  A    between atoms: _68  and  _70
REMARK   30  A    between atoms: _70  and  _71
REMARK   31  A    between atoms: _70  and  _73
REMARK   32  A    between atoms: _73  and  _74
REMARK   33  A    between atoms: _74  and  _75
REMARK   34  A    between atoms: _75  and  _76
REMARK   35  A    between atoms: _85  and  _87
REMARK   36  A    between atoms: _87  and  _88
REMARK   37  A    between atoms: _87  and  _90
REMARK   38  A    between atoms: _90  and  _91
REMARK   39  A    between atoms: _96  and  _98
REMARK   40  A    between atoms: _98  and  _99
REMARK   41  A    between atoms: _98  and  _101
REMARK   42  A    between atoms: _101  and  _102
REMARK   43  A    between atoms: _105  and  _107
REMARK   44  A    between atoms: _107  and  _108
REMARK   45  A    between atoms: _107  and  _110
REMARK   46  A    between atoms: _110  and  _111
REMARK   47  A    between atoms: _111  and  _146
REMARK   48  A    between atoms: _112  and  _114
REMARK   49  A    between atoms: _114  and  _115
REMARK   50  A    between atoms: _117  and  _119
REMARK   51  A    between atoms: _119  and  _120
REMARK   52  A    between atoms: _123  and  _125
REMARK   53  A    between atoms: _125  and  _126
REMARK   54  A    between atoms: _129  and  _131
REMARK   55  A    between atoms: _131  and  _132
REMARK   56  A    between atoms: _131  and  _134
REMARK   57  A    between atoms: _134  and  _135
REMARK   58  A    between atoms: _140  and  _142
REMARK   59  A    between atoms: _142  and  _143
REMARK   60  A    between atoms: _142  and  _145
REMARK   61  A    between atoms: _145  and  _146
REMARK   62  A    between atoms: _147  and  _149
REMARK   63  A    between atoms: _149  and  _150
REMARK   64  A    between atoms: _149  and  _152
REMARK   65  A    between atoms: _152  and  _153
REMARK   66  A    between atoms: _159  and  _161
REMARK   67  A    between atoms: _161  and  _162
REMARK   68  A    between atoms: _161  and  _164
REMARK   69  A    between atoms: _164  and  _165
REMARK   70  A    between atoms: _170  and  _171
REMARK   71  A    between atoms: _173  and  _175
REMARK   72  A    between atoms: _175  and  _176
REMARK   73  A    between atoms: _178  and  _180
REMARK   74  A    between atoms: _180  and  _181
REMARK   75  A    between atoms: _180  and  _183
REMARK   76  A    between atoms: _186  and  _188
REMARK   77  A    between atoms: _188  and  _189
REMARK   78  A    between atoms: _192  and  _194
REMARK   79  A    between atoms: _194  and  _195
REMARK   80  A    between atoms: _194  and  _197
REMARK   81  A    between atoms: _197  and  _198
REMARK   82  A    between atoms: _201  and  _203
REMARK   83  A    between atoms: _203  and  _204
REMARK   84  A    between atoms: _203  and  _206
REMARK   85  A    between atoms: _209  and  _211
REMARK   86  A    between atoms: _211  and  _212
REMARK   87  A    between atoms: _211  and  _214
REMARK   88  A    between atoms: _214  and  _215
REMARK   89  A    between atoms: _225  and  _227
REMARK   90  A    between atoms: _227  and  _228
REMARK   91  A    between atoms: _230  and  _232
REMARK   92  A    between atoms: _232  and  _233
REMARK   93  A    between atoms: _232  and  _235
REMARK   94  A    between atoms: _235  and  _236
REMARK   95  A    between atoms: _241  and  _242
REMARK   96  A    between atoms: _244  and  _246
REMARK   97  A    between atoms: _246  and  _247
REMARK   98  A    between atoms: _246  and  _249
REMARK   99  A    between atoms: _249  and  _250
REMARK  100  A    between atoms: _250  and  _251
REMARK  101  A    between atoms: _251  and  _252
REMARK  102  A    between atoms: _252  and  _253
REMARK  103  A    between atoms: _257  and  _259
REMARK  104  A    between atoms: _259  and  _260
REMARK  105  A    between atoms: _259  and  _262
REMARK  106  A    between atoms: _262  and  _263
REMARK  107  A    between atoms: _266  and  _268
REMARK  108  A    between atoms: _268  and  _269
REMARK  109  A    between atoms: _268  and  _271
REMARK  110  A    between atoms: _271  and  _272
REMARK  111  A    between atoms: _272  and  _273
REMARK  112  A    between atoms: _273  and  _274
REMARK  113  A    between atoms: _283  and  _285
REMARK  114  A    between atoms: _285  and  _286
REMARK  115  A    between atoms: _285  and  _288
REMARK  116  A    between atoms: _288  and  _289
REMARK  117  A    between atoms: _292  and  _294
REMARK  118  A    between atoms: _294  and  _295
REMARK  119  A    between atoms: _294  and  _297
REMARK  120  A    between atoms: _297  and  _298
REMARK  121  A    between atoms: _298  and  _299
REMARK  122  A    between atoms: _299  and  _300
REMARK  123  A    between atoms: _300  and  _301
REMARK  124  A    between atoms: _305  and  _307
REMARK  125  A    between atoms: _307  and  _308
REMARK  126  A    between atoms: _307  and  _310
REMARK  127  A    between atoms: _310  and  _311
REMARK  128  A    between atoms: _314  and  _316
REMARK  129  A    between atoms: _316  and  _317
REMARK  130  A    between atoms: _316  and  _319
REMARK  131  A    between atoms: _319  and  _320
REMARK  132  A    between atoms: _320  and  _321
REMARK  133  A    between atoms: _326  and  _328
REMARK  134  A    between atoms: _328  and  _329
REMARK  135  A    between atoms: _328  and  _331
REMARK  136  A    between atoms: _331  and  _332
REMARK  137  A    between atoms: _335  and  _337
REMARK  138  A    between atoms: _337  and  _338
REMARK  139  A    between atoms: _337  and  _340
REMARK  140  A    between atoms: _340  and  _341
REMARK  141  A    between atoms: _346  and  _347
REMARK  142  A    between atoms: _349  and  _351
REMARK  143  A    between atoms: _351  and  _352
REMARK  144  A    between atoms: _351  and  _354
REMARK  145  A    between atoms: _354  and  _355
REMARK  146  A    between atoms: _358  and  _360
REMARK  147  A    between atoms: _360  and  _361
REMARK  148  A    between atoms: _360  and  _363
REMARK  149  A    between atoms: _365  and  _367
REMARK  150  A    between atoms: _367  and  _368
REMARK  151  A    between atoms: _371  and  _373
REMARK  152  A    between atoms: _373  and  _374
REMARK  153  A    between atoms: _373  and  _376
REMARK  154  A    between atoms: _376  and  _377
REMARK  155  A    between atoms: _377  and  _378
REMARK  156  A    between atoms: _378  and  _379
REMARK  157  A    between atoms: _379  and  _380
REMARK  158  A    between atoms: _384  and  _386
REMARK  159  A    between atoms: _386  and  _387
REMARK  160  A    between atoms: _386  and  _389
REMARK  161  A    between atoms: _389  and  _390
REMARK  162  A    between atoms: _393  and  _395
REMARK  163  A    between atoms: _395  and  _396
REMARK  164  A    between atoms: _399  and  _401
REMARK  165  A    between atoms: _401  and  _402
REMARK  166  A    between atoms: _401  and  _404
REMARK  167  A    between atoms: _404  and  _405
REMARK  168  A    between atoms: _405  and  _519
REMARK  169  A    between atoms: _406  and  _408
REMARK  170  A    between atoms: _408  and  _409
REMARK  171  A    between atoms: _408  and  _411
REMARK  172  A    between atoms: _411  and  _412
REMARK  173  A    between atoms: _412  and  _413
REMARK  174  A    between atoms: _413  and  _414
REMARK  175  A    between atoms: _414  and  _415
REMARK  176  A    between atoms: _419  and  _421
REMARK  177  A    between atoms: _421  and  _422
REMARK  178  A    between atoms: _424  and  _426
REMARK  179  A    between atoms: _426  and  _427
REMARK  180  A    between atoms: _426  and  _429
REMARK  181  A    between atoms: _429  and  _430
REMARK  182  A    between atoms: _433  and  _435
REMARK  183  A    between atoms: _435  and  _436
REMARK  184  A    between atoms: _435  and  _438
REMARK  185  A    between atoms: _438  and  _439
REMARK  186  A    between atoms: _441  and  _443
REMARK  187  A    between atoms: _443  and  _444
REMARK  188  A    between atoms: _446  and  _448
REMARK  189  A    between atoms: _448  and  _449
REMARK  190  A    between atoms: _451  and  _453
REMARK  191  A    between atoms: _453  and  _454
REMARK  192  A    between atoms: _453  and  _456
REMARK  193  A    between atoms: _456  and  _457
REMARK  194  A    between atoms: _460  and  _462
REMARK  195  A    between atoms: _462  and  _463
REMARK  196  A    between atoms: _462  and  _465
REMARK  197  A    between atoms: _465  and  _466
REMARK  198  A    between atoms: _469  and  _471
REMARK  199  A    between atoms: _471  and  _472
REMARK  200  A    between atoms: _471  and  _474
REMARK  201  A    between atoms: _474  and  _475
REMARK  202  A    between atoms: _477  and  _479
REMARK  203  A    between atoms: _479  and  _480
REMARK  204  A    between atoms: _479  and  _482
REMARK  205  A    between atoms: _482  and  _483
REMARK  206  A    between atoms: _493  and  _495
REMARK  207  A    between atoms: _495  and  _496
REMARK  208  A    between atoms: _498  and  _500
REMARK  209  A    between atoms: _500  and  _501
REMARK  210  A    between atoms: _500  and  _503
REMARK  211  A    between atoms: _503  and  _504
REMARK  212  A    between atoms: _504  and  _505
REMARK  213  A    between atoms: _508  and  _510
REMARK  214  A    between atoms: _510  and  _511
REMARK  215  A    between atoms: _513  and  _515
REMARK  216  A    between atoms: _515  and  _516
REMARK  217  A    between atoms: _515  and  _518
REMARK  218  A    between atoms: _518  and  _519
REMARK  219  A    between atoms: _520  and  _522
REMARK  220  A    between atoms: _522  and  _523
REMARK  221  A    between atoms: _526  and  _528
REMARK  222  A    between atoms: _528  and  _529
REMARK  223  A    between atoms: _528  and  _531
REMARK  224  A    between atoms: _531  and  _532
REMARK  225  A    between atoms: _532  and  _533
REMARK  226  A    between atoms: _538  and  _540
REMARK  227  A    between atoms: _540  and  _541
REMARK  228  A    between atoms: _540  and  _543
REMARK  229  A    between atoms: _543  and  _544
REMARK  230  A    between atoms: _544  and  _545
REMARK  231  A    between atoms: _545  and  _546
REMARK  232  A    between atoms: _556  and  _557
REMARK  233  A    between atoms: _562  and  _564
REMARK  234  A    between atoms: _564  and  _565
REMARK  235  A    between atoms: _567  and  _569
REMARK  236  A    between atoms: _569  and  _570
REMARK  237  A    between atoms: _569  and  _572
REMARK  238  A    between atoms: _575  and  _577
REMARK  239  A    between atoms: _577  and  _578
REMARK  240  A    between atoms: _577  and  _580
REMARK  241  A    between atoms: _580  and  _581
REMARK  242  A    between atoms: _586  and  _587
REMARK  243  A    between atoms: _589  and  _591
REMARK  244  A    between atoms: _591  and  _592
REMARK  245  A    between atoms: _591  and  _594
REMARK  246  A    between atoms: _594  and  _595
REMARK                            x       y       z     vdW  Elec       q    Type
REMARK                         _______ _______ _______ _____ _____    ______ ____
ROOT
ATOM      1  O   HOH     1      19.573   8.058  58.884  0.00  0.00    +0.000 OA
ENDROOT
TORSDOF 0
REMARK  Name = ../refined-set-2016/4crb/4crb_pocket.pdb
REMARK  246 active torsions:
REMARK  status: ('A' for Active; 'I' for Inactive)
REMARK    1  A    between atoms: _1  and  _5
REMARK    2  A    between atoms: _5  and  _6
REMARK    3  A    between atoms: _5  and  _8
REMARK    4  A    between atoms: _8  and  _9
REMARK    5  A    between atoms: _12  and  _14
REMARK    6  A    between atoms: _14  and  _15
REMARK    7  A    between atoms: _14  and  _17
REMARK    8  A    between atoms: _20  and  _22
REMARK    9  A    between atoms: _22  and  _23
REMARK   10  A    between atoms: _22  and  _25
REMARK   11  A    between atoms: _25  and  _26
REMARK   12  A    between atoms: _29  and  _31
REMARK   13  A    between atoms: _31  and  _32
REMARK   14  A    between atoms: _31  and  _34
REMARK   15  A    between atoms: _34  and  _35
REMARK   16  A    between atoms: _38  and  _40
REMARK   17  A    between atoms: _40  and  _41
REMARK   18  A    between atoms: _40  and  _43
REMARK   19  A    between atoms: _43  and  _44
REMARK   20  A    between atoms: _47  and  _49
REMARK   21  A    between atoms: _49  and  _50
REMARK   22  A    between atoms: _49  and  _52
REMARK   23  A    between atoms: _52  and  _53
REMARK   24  A    between atoms: _56  and  _58
REMARK   25  A    between atoms: _58  and  _59
REMARK   26  A    between atoms: _58  and  _61
REMARK   27  A    between atoms: _61  and  _62
REMARK   28  A    between atoms: _62  and  _63
REMARK   29  A    between atoms: _68  and  _70
REMARK   30  A    between atoms: _70  and  _71
REMARK   31  A    between atoms: _70  and  _73
REMARK   32  A    between atoms: _73  and  _74
REMARK   33  A    between atoms: _74  and  _75
REMARK   34  A    between atoms: _75  and  _76
REMARK   35  A    between atoms: _85  and  _87
REMARK   36  A    between atoms: _87  and  _88
REMARK   37  A    between atoms: _87  and  _90
REMARK   38  A    between atoms: _90  and  _91
REMARK   39  A    between atoms: _96  and  _98
REMARK   40  A    between atoms: _98  and  _99
REMARK   41  A    between atoms: _98  and  _101
REMARK   42  A    between atoms: _101  and  _102
REMARK   43  A    between atoms: _105  and  _107
REMARK   44  A    between atoms: _107  and  _108
REMARK   45  A    between atoms: _107  and  _110
REMARK   46  A    between atoms: _110  and  _111
REMARK   47  A    between atoms: _111  and  _146
REMARK   48  A    between atoms: _112  and  _114
REMARK   49  A    between atoms: _114  and  _115
REMARK   50  A    between atoms: _117  and  _119
REMARK   51  A    between atoms: _119  and  _120
REMARK   52  A    between atoms: _123  and  _125
REMARK   53  A    between atoms: _125  and  _126
REMARK   54  A    between atoms: _129  and  _131
REMARK   55  A    between atoms: _131  and  _132
REMARK   56  A    between atoms: _131  and  _134
REMARK   57  A    between atoms: _134  and  _135
REMARK   58  A    between atoms: _140  and  _142
REMARK   59  A    between atoms: _142  and  _143
REMARK   60  A    between atoms: _142  and  _145
REMARK   61  A    between atoms: _145  and  _146
REMARK   62  A    between atoms: _147  and  _149
REMARK   63  A    between atoms: _149  and  _150
REMARK   64  A    between atoms: _149  and  _152
REMARK   65  A    between atoms: _152  and  _153
REMARK   66  A    between atoms: _159  and  _161
REMARK   67  A    between atoms: _161  and  _162
REMARK   68  A    between atoms: _161  and  _164
REMARK   69  A    between atoms: _164  and  _165
REMARK   70  A    between atoms: _170  and  _171
REMARK   71  A    between atoms: _173  and  _175
REMARK   72  A    between atoms: _175  and  _176
REMARK   73  A    between atoms: _178  and  _180
REMARK   74  A    between atoms: _180  and  _181
REMARK   75  A    between atoms: _180  and  _183
REMARK   76  A    between atoms: _186  and  _188
REMARK   77  A    between atoms: _188  and  _189
REMARK   78  A    between atoms: _192  and  _194
REMARK   79  A    between atoms: _194  and  _195
REMARK   80  A    between atoms: _194  and  _197
REMARK   81  A    between atoms: _197  and  _198
REMARK   82  A    between atoms: _201  and  _203
REMARK   83  A    between atoms: _203  and  _204
REMARK   84  A    between atoms: _203  and  _206
REMARK   85  A    between atoms: _209  and  _211
REMARK   86  A    between atoms: _211  and  _212
REMARK   87  A    between atoms: _211  and  _214
REMARK   88  A    between atoms: _214  and  _215
REMARK   89  A    between atoms: _225  and  _227
REMARK   90  A    between atoms: _227  and  _228
REMARK   91  A    between atoms: _230  and  _232
REMARK   92  A    between atoms: _232  and  _233
REMARK   93  A    between atoms: _232  and  _235
REMARK   94  A    between atoms: _235  and  _236
REMARK   95  A    between atoms: _241  and  _242
REMARK   96  A    between atoms: _244  and  _246
REMARK   97  A    between atoms: _246  and  _247
REMARK   98  A    between atoms: _246  and  _249
REMARK   99  A    between atoms: _249  and  _250
REMARK  100  A    between atoms: _250  and  _251
REMARK  101  A    between atoms: _251  and  _252
REMARK  102  A    between atoms: _252  and  _253
REMARK  103  A    between atoms: _257  and  _259
REMARK  104  A    between atoms: _259  and  _260
REMARK  105  A    between atoms: _259  and  _262
REMARK  106  A    between atoms: _262  and  _263
REMARK  107  A    between atoms: _266  and  _268
REMARK  108  A    between atoms: _268  and  _269
REMARK  109  A    between atoms: _268  and  _271
REMARK  110  A    between atoms: _271  and  _272
REMARK  111  A    between atoms: _272  and  _273
REMARK  112  A    between atoms: _273  and  _274
REMARK  113  A    between atoms: _283  and  _285
REMARK  114  A    between atoms: _285  and  _286
REMARK  115  A    between atoms: _285  and  _288
REMARK  116  A    between atoms: _288  and  _289
REMARK  117  A    between atoms: _292  and  _294
REMARK  118  A    between atoms: _294  and  _295
REMARK  119  A    between atoms: _294  and  _297
REMARK  120  A    between atoms: _297  and  _298
REMARK  121  A    between atoms: _298  and  _299
REMARK  122  A    between atoms: _299  and  _300
REMARK  123  A    between atoms: _300  and  _301
REMARK  124  A    between atoms: _305  and  _307
REMARK  125  A    between atoms: _307  and  _308
REMARK  126  A    between atoms: _307  and  _310
REMARK  127  A    between atoms: _310  and  _311
REMARK  128  A    between atoms: _314  and  _316
REMARK  129  A    between atoms: _316  and  _317
REMARK  130  A    between atoms: _316  and  _319
REMARK  131  A    between atoms: _319  and  _320
REMARK  132  A    between atoms: _320  and  _321
REMARK  133  A    between atoms: _326  and  _328
REMARK  134  A    between atoms: _328  and  _329
REMARK  135  A    between atoms: _328  and  _331
REMARK  136  A    between atoms: _331  and  _332
REMARK  137  A    between atoms: _335  and  _337
REMARK  138  A    between atoms: _337  and  _338
REMARK  139  A    between atoms: _337  and  _340
REMARK  140  A    between atoms: _340  and  _341
REMARK  141  A    between atoms: _346  and  _347
REMARK  142  A    between atoms: _349  and  _351
REMARK  143  A    between atoms: _351  and  _352
REMARK  144  A    between atoms: _351  and  _354
REMARK  145  A    between atoms: _354  and  _355
REMARK  146  A    between atoms: _358  and  _360
REMARK  147  A    between atoms: _360  and  _361
REMARK  148  A    between atoms: _360  and  _363
REMARK  149  A    between atoms: _365  and  _367
REMARK  150  A    between atoms: _367  and  _368
REMARK  151  A    between atoms: _371  and  _373
REMARK  152  A    between atoms: _373  and  _374
REMARK  153  A    between atoms: _373  and  _376
REMARK  154  A    between atoms: _376  and  _377
REMARK  155  A    between atoms: _377  and  _378
REMARK  156  A    between atoms: _378  and  _379
REMARK  157  A    between atoms: _379  and  _380
REMARK  158  A    between atoms: _384  and  _386
REMARK  159  A    between atoms: _386  and  _387
REMARK  160  A    between atoms: _386  and  _389
REMARK  161  A    between atoms: _389  and  _390
REMARK  162  A    between atoms: _393  and  _395
REMARK  163  A    between atoms: _395  and  _396
REMARK  164  A    between atoms: _399  and  _401
REMARK  165  A    between atoms: _401  and  _402
REMARK  166  A    between atoms: _401  and  _404
REMARK  167  A    between atoms: _404  and  _405
REMARK  168  A    between atoms: _405  and  _519
REMARK  169  A    between atoms: _406  and  _408
REMARK  170  A    between atoms: _408  and  _409
REMARK  171  A    between atoms: _408  and  _411
REMARK  172  A    between atoms: _411  and  _412
REMARK  173  A    between atoms: _412  and  _413
REMARK  174  A    between atoms: _413  and  _414
REMARK  175  A    between atoms: _414  and  _415
REMARK  176  A    between atoms: _419  and  _421
REMARK  177  A    between atoms: _421  and  _422
REMARK  178  A    between atoms: _424  and  _426
REMARK  179  A    between atoms: _426  and  _427
REMARK  180  A    between atoms: _426  and  _429
REMARK  181  A    between atoms: _429  and  _430
REMARK  182  A    between atoms: _433  and  _435
REMARK  183  A    between atoms: _435  and  _436
REMARK  184  A    between atoms: _435  and  _438
REMARK  185  A    between atoms: _438  and  _439
REMARK  186  A    between atoms: _441  and  _443
REMARK  187  A    between atoms: _443  and  _444
REMARK  188  A    between atoms: _446  and  _448
REMARK  189  A    between atoms: _448  and  _449
REMARK  190  A    between atoms: _451  and  _453
REMARK  191  A    between atoms: _453  and  _454
REMARK  192  A    between atoms: _453  and  _456
REMARK  193  A    between atoms: _456  and  _457
REMARK  194  A    between atoms: _460  and  _462
REMARK  195  A    between atoms: _462  and  _463
REMARK  196  A    between atoms: _462  and  _465
REMARK  197  A    between atoms: _465  and  _466
REMARK  198  A    between atoms: _469  and  _471
REMARK  199  A    between atoms: _471  and  _472
REMARK  200  A    between atoms: _471  and  _474
REMARK  201  A    between atoms: _474  and  _475
REMARK  202  A    between atoms: _477  and  _479
REMARK  203  A    between atoms: _479  and  _480
REMARK  204  A    between atoms: _479  and  _482
REMARK  205  A    between atoms: _482  and  _483
REMARK  206  A    between atoms: _493  and  _495
REMARK  207  A    between atoms: _495  and  _496
REMARK  208  A    between atoms: _498  and  _500
REMARK  209  A    between atoms: _500  and  _501
REMARK  210  A    between atoms: _500  and  _503
REMARK  211  A    between atoms: _503  and  _504
REMARK  212  A    between atoms: _504  and  _505
REMARK  213  A    between atoms: _508  and  _510
REMARK  214  A    between atoms: _510  and  _511
REMARK  215  A    between atoms: _513  and  _515
REMARK  216  A    between atoms: _515  and  _516
REMARK  217  A    between atoms: _515  and  _518
REMARK  218  A    between atoms: _518  and  _519
REMARK  219  A    between atoms: _520  and  _522
REMARK  220  A    between atoms: _522  and  _523
REMARK  221  A    between atoms: _526  and  _528
REMARK  222  A    between atoms: _528  and  _529
REMARK  223  A    between atoms: _528  and  _531
REMARK  224  A    between atoms: _531  and  _532
REMARK  225  A    between atoms: _532  and  _533
REMARK  226  A    between atoms: _538  and  _540
REMARK  227  A    between atoms: _540  and  _541
REMARK  228  A    between atoms: _540  and  _543
REMARK  229  A    between atoms: _543  and  _544
REMARK  230  A    between atoms: _544  and  _545
REMARK  231  A    between atoms: _545  and  _546
REMARK  232  A    between atoms: _556  and  _557
REMARK  233  A    between atoms: _562  and  _564
REMARK  234  A    between atoms: _564  and  _565
REMARK  235  A    between atoms: _567  and  _569
REMARK  236  A    between atoms: _569  and  _570
REMARK  237  A    between atoms: _569  and  _572
REMARK  238  A    between atoms: _575  and  _577
REMARK  239  A    between atoms: _577  and  _578
REMARK  240  A    between atoms: _577  and  _580
REMARK  241  A    between atoms: _580  and  _581
REMARK  242  A    between atoms: _586  and  _587
REMARK  243  A    between atoms: _589  and  _591
REMARK  244  A    between atoms: _591  and  _592
REMARK  245  A    between atoms: _591  and  _594
REMARK  246  A    between atoms: _594  and  _595
REMARK                            x       y       z     vdW  Elec       q    Type
REMARK                         _______ _______ _______ _____ _____    ______ ____
ROOT
ATOM      1  O   HOH     1      27.650   0.839  58.178  0.00  0.00    +0.000 OA
ENDROOT
TORSDOF 0
REMARK  Name = ../refined-set-2016/4crb/4crb_pocket.pdb
REMARK  246 active torsions:
REMARK  status: ('A' for Active; 'I' for Inactive)
REMARK    1  A    between atoms: _1  and  _5
REMARK    2  A    between atoms: _5  and  _6
REMARK    3  A    between atoms: _5  and  _8
REMARK    4  A    between atoms: _8  and  _9
REMARK    5  A    between atoms: _12  and  _14
REMARK    6  A    between atoms: _14  and  _15
REMARK    7  A    between atoms: _14  and  _17
REMARK    8  A    between atoms: _20  and  _22
REMARK    9  A    between atoms: _22  and  _23
REMARK   10  A    between atoms: _22  and  _25
REMARK   11  A    between atoms: _25  and  _26
REMARK   12  A    between atoms: _29  and  _31
REMARK   13  A    between atoms: _31  and  _32
REMARK   14  A    between atoms: _31  and  _34
REMARK   15  A    between atoms: _34  and  _35
REMARK   16  A    between atoms: _38  and  _40
REMARK   17  A    between atoms: _40  and  _41
REMARK   18  A    between atoms: _40  and  _43
REMARK   19  A    between atoms: _43  and  _44
REMARK   20  A    between atoms: _47  and  _49
REMARK   21  A    between atoms: _49  and  _50
REMARK   22  A    between atoms: _49  and  _52
REMARK   23  A    between atoms: _52  and  _53
REMARK   24  A    between atoms: _56  and  _58
REMARK   25  A    between atoms: _58  and  _59
REMARK   26  A    between atoms: _58  and  _61
REMARK   27  A    between atoms: _61  and  _62
REMARK   28  A    between atoms: _62  and  _63
REMARK   29  A    between atoms: _68  and  _70
REMARK   30  A    between atoms: _70  and  _71
REMARK   31  A    between atoms: _70  and  _73
REMARK   32  A    between atoms: _73  and  _74
REMARK   33  A    between atoms: _74  and  _75
REMARK   34  A    between atoms: _75  and  _76
REMARK   35  A    between atoms: _85  and  _87
REMARK   36  A    between atoms: _87  and  _88
REMARK   37  A    between atoms: _87  and  _90
REMARK   38  A    between atoms: _90  and  _91
REMARK   39  A    between atoms: _96  and  _98
REMARK   40  A    between atoms: _98  and  _99
REMARK   41  A    between atoms: _98  and  _101
REMARK   42  A    between atoms: _101  and  _102
REMARK   43  A    between atoms: _105  and  _107
REMARK   44  A    between atoms: _107  and  _108
REMARK   45  A    between atoms: _107  and  _110
REMARK   46  A    between atoms: _110  and  _111
REMARK   47  A    between atoms: _111  and  _146
REMARK   48  A    between atoms: _112  and  _114
REMARK   49  A    between atoms: _114  and  _115
REMARK   50  A    between atoms: _117  and  _119
REMARK   51  A    between atoms: _119  and  _120
REMARK   52  A    between atoms: _123  and  _125
REMARK   53  A    between atoms: _125  and  _126
REMARK   54  A    between atoms: _129  and  _131
REMARK   55  A    between atoms: _131  and  _132
REMARK   56  A    between atoms: _131  and  _134
REMARK   57  A    between atoms: _134  and  _135
REMARK   58  A    between atoms: _140  and  _142
REMARK   59  A    between atoms: _142  and  _143
REMARK   60  A    between atoms: _142  and  _145
REMARK   61  A    between atoms: _145  and  _146
REMARK   62  A    between atoms: _147  and  _149
REMARK   63  A    between atoms: _149  and  _150
REMARK   64  A    between atoms: _149  and  _152
REMARK   65  A    between atoms: _152  and  _153
REMARK   66  A    between atoms: _159  and  _161
REMARK   67  A    between atoms: _161  and  _162
REMARK   68  A    between atoms: _161  and  _164
REMARK   69  A    between atoms: _164  and  _165
REMARK   70  A    between atoms: _170  and  _171
REMARK   71  A    between atoms: _173  and  _175
REMARK   72  A    between atoms: _175  and  _176
REMARK   73  A    between atoms: _178  and  _180
REMARK   74  A    between atoms: _180  and  _181
REMARK   75  A    between atoms: _180  and  _183
REMARK   76  A    between atoms: _186  and  _188
REMARK   77  A    between atoms: _188  and  _189
REMARK   78  A    between atoms: _192  and  _194
REMARK   79  A    between atoms: _194  and  _195
REMARK   80  A    between atoms: _194  and  _197
REMARK   81  A    between atoms: _197  and  _198
REMARK   82  A    between atoms: _201  and  _203
REMARK   83  A    between atoms: _203  and  _204
REMARK   84  A    between atoms: _203  and  _206
REMARK   85  A    between atoms: _209  and  _211
REMARK   86  A    between atoms: _211  and  _212
REMARK   87  A    between atoms: _211  and  _214
REMARK   88  A    between atoms: _214  and  _215
REMARK   89  A    between atoms: _225  and  _227
REMARK   90  A    between atoms: _227  and  _228
REMARK   91  A    between atoms: _230  and  _232
REMARK   92  A    between atoms: _232  and  _233
REMARK   93  A    between atoms: _232  and  _235
REMARK   94  A    between atoms: _235  and  _236
REMARK   95  A    between atoms: _241  and  _242
REMARK   96  A    between atoms: _244  and  _246
REMARK   97  A    between atoms: _246  and  _247
REMARK   98  A    between atoms: _246  and  _249
REMARK   99  A    between atoms: _249  and  _250
REMARK  100  A    between atoms: _250  and  _251
REMARK  101  A    between atoms: _251  and  _252
REMARK  102  A    between atoms: _252  and  _253
REMARK  103  A    between atoms: _257  and  _259
REMARK  104  A    between atoms: _259  and  _260
REMARK  105  A    between atoms: _259  and  _262
REMARK  106  A    between atoms: _262  and  _263
REMARK  107  A    between atoms: _266  and  _268
REMARK  108  A    between atoms: _268  and  _269
REMARK  109  A    between atoms: _268  and  _271
REMARK  110  A    between atoms: _271  and  _272
REMARK  111  A    between atoms: _272  and  _273
REMARK  112  A    between atoms: _273  and  _274
REMARK  113  A    between atoms: _283  and  _285
REMARK  114  A    between atoms: _285  and  _286
REMARK  115  A    between atoms: _285  and  _288
REMARK  116  A    between atoms: _288  and  _289
REMARK  117  A    between atoms: _292  and  _294
REMARK  118  A    between atoms: _294  and  _295
REMARK  119  A    between atoms: _294  and  _297
REMARK  120  A    between atoms: _297  and  _298
REMARK  121  A    between atoms: _298  and  _299
REMARK  122  A    between atoms: _299  and  _300
REMARK  123  A    between atoms: _300  and  _301
REMARK  124  A    between atoms: _305  and  _307
REMARK  125  A    between atoms: _307  and  _308
REMARK  126  A    between atoms: _307  and  _310
REMARK  127  A    between atoms: _310  and  _311
REMARK  128  A    between atoms: _314  and  _316
REMARK  129  A    between atoms: _316  and  _317
REMARK  130  A    between atoms: _316  and  _319
REMARK  131  A    between atoms: _319  and  _320
REMARK  132  A    between atoms: _320  and  _321
REMARK  133  A    between atoms: _326  and  _328
REMARK  134  A    between atoms: _328  and  _329
REMARK  135  A    between atoms: _328  and  _331
REMARK  136  A    between atoms: _331  and  _332
REMARK  137  A    between atoms: _335  and  _337
REMARK  138  A    between atoms: _337  and  _338
REMARK  139  A    between atoms: _337  and  _340
REMARK  140  A    between atoms: _340  and  _341
REMARK  141  A    between atoms: _346  and  _347
REMARK  142  A    between atoms: _349  and  _351
REMARK  143  A    between atoms: _351  and  _352
REMARK  144  A    between atoms: _351  and  _354
REMARK  145  A    between atoms: _354  and  _355
REMARK  146  A    between atoms: _358  and  _360
REMARK  147  A    between atoms: _360  and  _361
REMARK  148  A    between atoms: _360  and  _363
REMARK  149  A    between atoms: _365  and  _367
REMARK  150  A    between atoms: _367  and  _368
REMARK  151  A    between atoms: _371  and  _373
REMARK  152  A    between atoms: _373  and  _374
REMARK  153  A    between atoms: _373  and  _376
REMARK  154  A    between atoms: _376  and  _377
REMARK  155  A    between atoms: _377  and  _378
REMARK  156  A    between atoms: _378  and  _379
REMARK  157  A    between atoms: _379  and  _380
REMARK  158  A    between atoms: _384  and  _386
REMARK  159  A    between atoms: _386  and  _387
REMARK  160  A    between atoms: _386  and  _389
REMARK  161  A    between atoms: _389  and  _390
REMARK  162  A    between atoms: _393  and  _395
REMARK  163  A    between atoms: _395  and  _396
REMARK  164  A    between atoms: _399  and  _401
REMARK  165  A    between atoms: _401  and  _402
REMARK  166  A    between atoms: _401  and  _404
REMARK  167  A    between atoms: _404  and  _405
REMARK  168  A    between atoms: _405  and  _519
REMARK  169  A    between atoms: _406  and  _408
REMARK  170  A    between atoms: _408  and  _409
REMARK  171  A    between atoms: _408  and  _411
REMARK  172  A    between atoms: _411  and  _412
REMARK  173  A    between atoms: _412  and  _413
REMARK  174  A    between atoms: _413  and  _414
REMARK  175  A    between atoms: _414  and  _415
REMARK  176  A    between atoms: _419  and  _421
REMARK  177  A    between atoms: _421  and  _422
REMARK  178  A    between atoms: _424  and  _426
REMARK  179  A    between atoms: _426  and  _427
REMARK  180  A    between atoms: _426  and  _429
REMARK  181  A    between atoms: _429  and  _430
REMARK  182  A    between atoms: _433  and  _435
REMARK  183  A    between atoms: _435  and  _436
REMARK  184  A    between atoms: _435  and  _438
REMARK  185  A    between atoms: _438  and  _439
REMARK  186  A    between atoms: _441  and  _443
REMARK  187  A    between atoms: _443  and  _444
REMARK  188  A    between atoms: _446  and  _448
REMARK  189  A    between atoms: _448  and  _449
REMARK  190  A    between atoms: _451  and  _453
REMARK  191  A    between atoms: _453  and  _454
REMARK  192  A    between atoms: _453  and  _456
REMARK  193  A    between atoms: _456  and  _457
REMARK  194  A    between atoms: _460  and  _462
REMARK  195  A    between atoms: _462  and  _463
REMARK  196  A    between atoms: _462  and  _465
REMARK  197  A    between atoms: _465  and  _466
REMARK  198  A    between atoms: _469  and  _471
REMARK  199  A    between atoms: _471  and  _472
REMARK  200  A    between atoms: _471  and  _474
REMARK  201  A    between atoms: _474  and  _475
REMARK  202  A    between atoms: _477  and  _479
REMARK  203  A    between atoms: _479  and  _480
REMARK  204  A    between atoms: _479  and  _482
REMARK  205  A    between atoms: _482  and  _483
REMARK  206  A    between atoms: _493  and  _495
REMARK  207  A    between atoms: _495  and  _496
REMARK  208  A    between atoms: _498  and  _500
REMARK  209  A    between atoms: _500  and  _501
REMARK  210  A    between atoms: _500  and  _503
REMARK  211  A    between atoms: _503  and  _504
REMARK  212  A    between atoms: _504  and  _505
REMARK  213  A    between atoms: _508  and  _510
REMARK  214  A    between atoms: _510  and  _511
REMARK  215  A    between atoms: _513  and  _515
REMARK  216  A    between atoms: _515  and  _516
REMARK  217  A    between atoms: _515  and  _518
REMARK  218  A    between atoms: _518  and  _519
REMARK  219  A    between atoms: _520  and  _522
REMARK  220  A    between atoms: _522  and  _523
REMARK  221  A    between atoms: _526  and  _528
REMARK  222  A    between atoms: _528  and  _529
REMARK  223  A    between atoms: _528  and  _531
REMARK  224  A    between atoms: _531  and  _532
REMARK  225  A    between atoms: _532  and  _533
REMARK  226  A    between atoms: _538  and  _540
REMARK  227  A    between atoms: _540  and  _541
REMARK  228  A    between atoms: _540  and  _543
REMARK  229  A    between atoms: _543  and  _544
REMARK  230  A    between atoms: _544  and  _545
REMARK  231  A    between atoms: _545  and  _546
REMARK  232  A    between atoms: _556  and  _557
REMARK  233  A    between atoms: _562  and  _564
REMARK  234  A    between atoms: _564  and  _565
REMARK  235  A    between atoms: _567  and  _569
REMARK  236  A    between atoms: _569  and  _570
REMARK  237  A    between atoms: _569  and  _572
REMARK  238  A    between atoms: _575  and  _577
REMARK  239  A    between atoms: _577  and  _578
REMARK  240  A    between atoms: _577  and  _580
REMARK  241  A    between atoms: _580  and  _581
REMARK  242  A    between atoms: _586  and  _587
REMARK  243  A    between atoms: _589  and  _591
REMARK  244  A    between atoms: _591  and  _592
REMARK  245  A    between atoms: _591  and  _594
REMARK  246  A    between atoms: _594  and  _595
REMARK                            x       y       z     vdW  Elec       q    Type
REMARK                         _______ _______ _______ _____ _____    ______ ____
ROOT
ATOM      1  O   HOH     1      17.364   9.534  42.695  0.00  0.00    +0.000 OA
ENDROOT
TORSDOF 0
REMARK  Name = ../refined-set-2016/4crb/4crb_pocket.pdb
REMARK  246 active torsions:
REMARK  status: ('A' for Active; 'I' for Inactive)
REMARK    1  A    between atoms: _1  and  _5
REMARK    2  A    between atoms: _5  and  _6
REMARK    3  A    between atoms: _5  and  _8
REMARK    4  A    between atoms: _8  and  _9
REMARK    5  A    between atoms: _12  and  _14
REMARK    6  A    between atoms: _14  and  _15
REMARK    7  A    between atoms: _14  and  _17
REMARK    8  A    between atoms: _20  and  _22
REMARK    9  A    between atoms: _22  and  _23
REMARK   10  A    between atoms: _22  and  _25
REMARK   11  A    between atoms: _25  and  _26
REMARK   12  A    between atoms: _29  and  _31
REMARK   13  A    between atoms: _31  and  _32
REMARK   14  A    between atoms: _31  and  _34
REMARK   15  A    between atoms: _34  and  _35
REMARK   16  A    between atoms: _38  and  _40
REMARK   17  A    between atoms: _40  and  _41
REMARK   18  A    between atoms: _40  and  _43
REMARK   19  A    between atoms: _43  and  _44
REMARK   20  A    between atoms: _47  and  _49
REMARK   21  A    between atoms: _49  and  _50
REMARK   22  A    between atoms: _49  and  _52
REMARK   23  A    between atoms: _52  and  _53
REMARK   24  A    between atoms: _56  and  _58
REMARK   25  A    between atoms: _58  and  _59
REMARK   26  A    between atoms: _58  and  _61
REMARK   27  A    between atoms: _61  and  _62
REMARK   28  A    between atoms: _62  and  _63
REMARK   29  A    between atoms: _68  and  _70
REMARK   30  A    between atoms: _70  and  _71
REMARK   31  A    between atoms: _70  and  _73
REMARK   32  A    between atoms: _73  and  _74
REMARK   33  A    between atoms: _74  and  _75
REMARK   34  A    between atoms: _75  and  _76
REMARK   35  A    between atoms: _85  and  _87
REMARK   36  A    between atoms: _87  and  _88
REMARK   37  A    between atoms: _87  and  _90
REMARK   38  A    between atoms: _90  and  _91
REMARK   39  A    between atoms: _96  and  _98
REMARK   40  A    between atoms: _98  and  _99
REMARK   41  A    between atoms: _98  and  _101
REMARK   42  A    between atoms: _101  and  _102
REMARK   43  A    between atoms: _105  and  _107
REMARK   44  A    between atoms: _107  and  _108
REMARK   45  A    between atoms: _107  and  _110
REMARK   46  A    between atoms: _110  and  _111
REMARK   47  A    between atoms: _111  and  _146
REMARK   48  A    between atoms: _112  and  _114
REMARK   49  A    between atoms: _114  and  _115
REMARK   50  A    between atoms: _117  and  _119
REMARK   51  A    between atoms: _119  and  _120
REMARK   52  A    between atoms: _123  and  _125
REMARK   53  A    between atoms: _125  and  _126
REMARK   54  A    between atoms: _129  and  _131
REMARK   55  A    between atoms: _131  and  _132
REMARK   56  A    between atoms: _131  and  _134
REMARK   57  A    between atoms: _134  and  _135
REMARK   58  A    between atoms: _140  and  _142
REMARK   59  A    between atoms: _142  and  _143
REMARK   60  A    between atoms: _142  and  _145
REMARK   61  A    between atoms: _145  and  _146
REMARK   62  A    between atoms: _147  and  _149
REMARK   63  A    between atoms: _149  and  _150
REMARK   64  A    between atoms: _149  and  _152
REMARK   65  A    between atoms: _152  and  _153
REMARK   66  A    between atoms: _159  and  _161
REMARK   67  A    between atoms: _161  and  _162
REMARK   68  A    between atoms: _161  and  _164
REMARK   69  A    between atoms: _164  and  _165
REMARK   70  A    between atoms: _170  and  _171
REMARK   71  A    between atoms: _173  and  _175
REMARK   72  A    between atoms: _175  and  _176
REMARK   73  A    between atoms: _178  and  _180
REMARK   74  A    between atoms: _180  and  _181
REMARK   75  A    between atoms: _180  and  _183
REMARK   76  A    between atoms: _186  and  _188
REMARK   77  A    between atoms: _188  and  _189
REMARK   78  A    between atoms: _192  and  _194
REMARK   79  A    between atoms: _194  and  _195
REMARK   80  A    between atoms: _194  and  _197
REMARK   81  A    between atoms: _197  and  _198
REMARK   82  A    between atoms: _201  and  _203
REMARK   83  A    between atoms: _203  and  _204
REMARK   84  A    between atoms: _203  and  _206
REMARK   85  A    between atoms: _209  and  _211
REMARK   86  A    between atoms: _211  and  _212
REMARK   87  A    between atoms: _211  and  _214
REMARK   88  A    between atoms: _214  and  _215
REMARK   89  A    between atoms: _225  and  _227
REMARK   90  A    between atoms: _227  and  _228
REMARK   91  A    between atoms: _230  and  _232
REMARK   92  A    between atoms: _232  and  _233
REMARK   93  A    between atoms: _232  and  _235
REMARK   94  A    between atoms: _235  and  _236
REMARK   95  A    between atoms: _241  and  _242
REMARK   96  A    between atoms: _244  and  _246
REMARK   97  A    between atoms: _246  and  _247
REMARK   98  A    between atoms: _246  and  _249
REMARK   99  A    between atoms: _249  and  _250
REMARK  100  A    between atoms: _250  and  _251
REMARK  101  A    between atoms: _251  and  _252
REMARK  102  A    between atoms: _252  and  _253
REMARK  103  A    between atoms: _257  and  _259
REMARK  104  A    between atoms: _259  and  _260
REMARK  105  A    between atoms: _259  and  _262
REMARK  106  A    between atoms: _262  and  _263
REMARK  107  A    between atoms: _266  and  _268
REMARK  108  A    between atoms: _268  and  _269
REMARK  109  A    between atoms: _268  and  _271
REMARK  110  A    between atoms: _271  and  _272
REMARK  111  A    between atoms: _272  and  _273
REMARK  112  A    between atoms: _273  and  _274
REMARK  113  A    between atoms: _283  and  _285
REMARK  114  A    between atoms: _285  and  _286
REMARK  115  A    between atoms: _285  and  _288
REMARK  116  A    between atoms: _288  and  _289
REMARK  117  A    between atoms: _292  and  _294
REMARK  118  A    between atoms: _294  and  _295
REMARK  119  A    between atoms: _294  and  _297
REMARK  120  A    between atoms: _297  and  _298
REMARK  121  A    between atoms: _298  and  _299
REMARK  122  A    between atoms: _299  and  _300
REMARK  123  A    between atoms: _300  and  _301
REMARK  124  A    between atoms: _305  and  _307
REMARK  125  A    between atoms: _307  and  _308
REMARK  126  A    between atoms: _307  and  _310
REMARK  127  A    between atoms: _310  and  _311
REMARK  128  A    between atoms: _314  and  _316
REMARK  129  A    between atoms: _316  and  _317
REMARK  130  A    between atoms: _316  and  _319
REMARK  131  A    between atoms: _319  and  _320
REMARK  132  A    between atoms: _320  and  _321
REMARK  133  A    between atoms: _326  and  _328
REMARK  134  A    between atoms: _328  and  _329
REMARK  135  A    between atoms: _328  and  _331
REMARK  136  A    between atoms: _331  and  _332
REMARK  137  A    between atoms: _335  and  _337
REMARK  138  A    between atoms: _337  and  _338
REMARK  139  A    between atoms: _337  and  _340
REMARK  140  A    between atoms: _340  and  _341
REMARK  141  A    between atoms: _346  and  _347
REMARK  142  A    between atoms: _349  and  _351
REMARK  143  A    between atoms: _351  and  _352
REMARK  144  A    between atoms: _351  and  _354
REMARK  145  A    between atoms: _354  and  _355
REMARK  146  A    between atoms: _358  and  _360
REMARK  147  A    between atoms: _360  and  _361
REMARK  148  A    between atoms: _360  and  _363
REMARK  149  A    between atoms: _365  and  _367
REMARK  150  A    between atoms: _367  and  _368
REMARK  151  A    between atoms: _371  and  _373
REMARK  152  A    between atoms: _373  and  _374
REMARK  153  A    between atoms: _373  and  _376
REMARK  154  A    between atoms: _376  and  _377
REMARK  155  A    between atoms: _377  and  _378
REMARK  156  A    between atoms: _378  and  _379
REMARK  157  A    between atoms: _379  and  _380
REMARK  158  A    between atoms: _384  and  _386
REMARK  159  A    between atoms: _386  and  _387
REMARK  160  A    between atoms: _386  and  _389
REMARK  161  A    between atoms: _389  and  _390
REMARK  162  A    between atoms: _393  and  _395
REMARK  163  A    between atoms: _395  and  _396
REMARK  164  A    between atoms: _399  and  _401
REMARK  165  A    between atoms: _401  and  _402
REMARK  166  A    between atoms: _401  and  _404
REMARK  167  A    between atoms: _404  and  _405
REMARK  168  A    between atoms: _405  and  _519
REMARK  169  A    between atoms: _406  and  _408
REMARK  170  A    between atoms: _408  and  _409
REMARK  171  A    between atoms: _408  and  _411
REMARK  172  A    between atoms: _411  and  _412
REMARK  173  A    between atoms: _412  and  _413
REMARK  174  A    between atoms: _413  and  _414
REMARK  175  A    between atoms: _414  and  _415
REMARK  176  A    between atoms: _419  and  _421
REMARK  177  A    between atoms: _421  and  _422
REMARK  178  A    between atoms: _424  and  _426
REMARK  179  A    between atoms: _426  and  _427
REMARK  180  A    between atoms: _426  and  _429
REMARK  181  A    between atoms: _429  and  _430
REMARK  182  A    between atoms: _433  and  _435
REMARK  183  A    between atoms: _435  and  _436
REMARK  184  A    between atoms: _435  and  _438
REMARK  185  A    between atoms: _438  and  _439
REMARK  186  A    between atoms: _441  and  _443
REMARK  187  A    between atoms: _443  and  _444
REMARK  188  A    between atoms: _446  and  _448
REMARK  189  A    between atoms: _448  and  _449
REMARK  190  A    between atoms: _451  and  _453
REMARK  191  A    between atoms: _453  and  _454
REMARK  192  A    between atoms: _453  and  _456
REMARK  193  A    between atoms: _456  and  _457
REMARK  194  A    between atoms: _460  and  _462
REMARK  195  A    between atoms: _462  and  _463
REMARK  196  A    between atoms: _462  and  _465
REMARK  197  A    between atoms: _465  and  _466
REMARK  198  A    between atoms: _469  and  _471
REMARK  199  A    between atoms: _471  and  _472
REMARK  200  A    between atoms: _471  and  _474
REMARK  201  A    between atoms: _474  and  _475
REMARK  202  A    between atoms: _477  and  _479
REMARK  203  A    between atoms: _479  and  _480
REMARK  204  A    between atoms: _479  and  _482
REMARK  205  A    between atoms: _482  and  _483
REMARK  206  A    between atoms: _493  and  _495
REMARK  207  A    between atoms: _495  and  _496
REMARK  208  A    between atoms: _498  and  _500
REMARK  209  A    between atoms: _500  and  _501
REMARK  210  A    between atoms: _500  and  _503
REMARK  211  A    between atoms: _503  and  _504
REMARK  212  A    between atoms: _504  and  _505
REMARK  213  A    between atoms: _508  and  _510
REMARK  214  A    between atoms: _510  and  _511
REMARK  215  A    between atoms: _513  and  _515
REMARK  216  A    between atoms: _515  and  _516
REMARK  217  A    between atoms: _515  and  _518
REMARK  218  A    between atoms: _518  and  _519
REMARK  219  A    between atoms: _520  and  _522
REMARK  220  A    between atoms: _522  and  _523
REMARK  221  A    between atoms: _526  and  _528
REMARK  222  A    between atoms: _528  and  _529
REMARK  223  A    between atoms: _528  and  _531
REMARK  224  A    between atoms: _531  and  _532
REMARK  225  A    between atoms: _532  and  _533
REMARK  226  A    between atoms: _538  and  _540
REMARK  227  A    between atoms: _540  and  _541
REMARK  228  A    between atoms: _540  and  _543
REMARK  229  A    between atoms: _543  and  _544
REMARK  230  A    between atoms: _544  and  _545
REMARK  231  A    between atoms: _545  and  _546
REMARK  232  A    between atoms: _556  and  _557
REMARK  233  A    between atoms: _562  and  _564
REMARK  234  A    between atoms: _564  and  _565
REMARK  235  A    between atoms: _567  and  _569
REMARK  236  A    between atoms: _569  and  _570
REMARK  237  A    between atoms: _569  and  _572
REMARK  238  A    between atoms: _575  and  _577
REMARK  239  A    between atoms: _577  and  _578
REMARK  240  A    between atoms: _577  and  _580
REMARK  241  A    between atoms: _580  and  _581
REMARK  242  A    between atoms: _586  and  _587
REMARK  243  A    between atoms: _589  and  _591
REMARK  244  A    between atoms: _591  and  _592
REMARK  245  A    between atoms: _591  and  _594
REMARK  246  A    between atoms: _594  and  _595
REMARK                            x       y       z     vdW  Elec       q    Type
REMARK                         _______ _______ _______ _____ _____    ______ ____
ROOT
ATOM      1  O   HOH     1      13.160  10.924  49.197  0.00  0.00    +0.000 OA
ENDROOT
TORSDOF 0
REMARK  Name = ../refined-set-2016/4crb/4crb_pocket.pdb
REMARK  246 active torsions:
REMARK  status: ('A' for Active; 'I' for Inactive)
REMARK    1  A    between atoms: _1  and  _5
REMARK    2  A    between atoms: _5  and  _6
REMARK    3  A    between atoms: _5  and  _8
REMARK    4  A    between atoms: _8  and  _9
REMARK    5  A    between atoms: _12  and  _14
REMARK    6  A    between atoms: _14  and  _15
REMARK    7  A    between atoms: _14  and  _17
REMARK    8  A    between atoms: _20  and  _22
REMARK    9  A    between atoms: _22  and  _23
REMARK   10  A    between atoms: _22  and  _25
REMARK   11  A    between atoms: _25  and  _26
REMARK   12  A    between atoms: _29  and  _31
REMARK   13  A    between atoms: _31  and  _32
REMARK   14  A    between atoms: _31  and  _34
REMARK   15  A    between atoms: _34  and  _35
REMARK   16  A    between atoms: _38  and  _40
REMARK   17  A    between atoms: _40  and  _41
REMARK   18  A    between atoms: _40  and  _43
REMARK   19  A    between atoms: _43  and  _44
REMARK   20  A    between atoms: _47  and  _49
REMARK   21  A    between atoms: _49  and  _50
REMARK   22  A    between atoms: _49  and  _52
REMARK   23  A    between atoms: _52  and  _53
REMARK   24  A    between atoms: _56  and  _58
REMARK   25  A    between atoms: _58  and  _59
REMARK   26  A    between atoms: _58  and  _61
REMARK   27  A    between atoms: _61  and  _62
REMARK   28  A    between atoms: _62  and  _63
REMARK   29  A    between atoms: _68  and  _70
REMARK   30  A    between atoms: _70  and  _71
REMARK   31  A    between atoms: _70  and  _73
REMARK   32  A    between atoms: _73  and  _74
REMARK   33  A    between atoms: _74  and  _75
REMARK   34  A    between atoms: _75  and  _76
REMARK   35  A    between atoms: _85  and  _87
REMARK   36  A    between atoms: _87  and  _88
REMARK   37  A    between atoms: _87  and  _90
REMARK   38  A    between atoms: _90  and  _91
REMARK   39  A    between atoms: _96  and  _98
REMARK   40  A    between atoms: _98  and  _99
REMARK   41  A    between atoms: _98  and  _101
REMARK   42  A    between atoms: _101  and  _102
REMARK   43  A    between atoms: _105  and  _107
REMARK   44  A    between atoms: _107  and  _108
REMARK   45  A    between atoms: _107  and  _110
REMARK   46  A    between atoms: _110  and  _111
REMARK   47  A    between atoms: _111  and  _146
REMARK   48  A    between atoms: _112  and  _114
REMARK   49  A    between atoms: _114  and  _115
REMARK   50  A    between atoms: _117  and  _119
REMARK   51  A    between atoms: _119  and  _120
REMARK   52  A    between atoms: _123  and  _125
REMARK   53  A    between atoms: _125  and  _126
REMARK   54  A    between atoms: _129  and  _131
REMARK   55  A    between atoms: _131  and  _132
REMARK   56  A    between atoms: _131  and  _134
REMARK   57  A    between atoms: _134  and  _135
REMARK   58  A    between atoms: _140  and  _142
REMARK   59  A    between atoms: _142  and  _143
REMARK   60  A    between atoms: _142  and  _145
REMARK   61  A    between atoms: _145  and  _146
REMARK   62  A    between atoms: _147  and  _149
REMARK   63  A    between atoms: _149  and  _150
REMARK   64  A    between atoms: _149  and  _152
REMARK   65  A    between atoms: _152  and  _153
REMARK   66  A    between atoms: _159  and  _161
REMARK   67  A    between atoms: _161  and  _162
REMARK   68  A    between atoms: _161  and  _164
REMARK   69  A    between atoms: _164  and  _165
REMARK   70  A    between atoms: _170  and  _171
REMARK   71  A    between atoms: _173  and  _175
REMARK   72  A    between atoms: _175  and  _176
REMARK   73  A    between atoms: _178  and  _180
REMARK   74  A    between atoms: _180  and  _181
REMARK   75  A    between atoms: _180  and  _183
REMARK   76  A    between atoms: _186  and  _188
REMARK   77  A    between atoms: _188  and  _189
REMARK   78  A    between atoms: _192  and  _194
REMARK   79  A    between atoms: _194  and  _195
REMARK   80  A    between atoms: _194  and  _197
REMARK   81  A    between atoms: _197  and  _198
REMARK   82  A    between atoms: _201  and  _203
REMARK   83  A    between atoms: _203  and  _204
REMARK   84  A    between atoms: _203  and  _206
REMARK   85  A    between atoms: _209  and  _211
REMARK   86  A    between atoms: _211  and  _212
REMARK   87  A    between atoms: _211  and  _214
REMARK   88  A    between atoms: _214  and  _215
REMARK   89  A    between atoms: _225  and  _227
REMARK   90  A    between atoms: _227  and  _228
REMARK   91  A    between atoms: _230  and  _232
REMARK   92  A    between atoms: _232  and  _233
REMARK   93  A    between atoms: _232  and  _235
REMARK   94  A    between atoms: _235  and  _236
REMARK   95  A    between atoms: _241  and  _242
REMARK   96  A    between atoms: _244  and  _246
REMARK   97  A    between atoms: _246  and  _247
REMARK   98  A    between atoms: _246  and  _249
REMARK   99  A    between atoms: _249  and  _250
REMARK  100  A    between atoms: _250  and  _251
REMARK  101  A    between atoms: _251  and  _252
REMARK  102  A    between atoms: _252  and  _253
REMARK  103  A    between atoms: _257  and  _259
REMARK  104  A    between atoms: _259  and  _260
REMARK  105  A    between atoms: _259  and  _262
REMARK  106  A    between atoms: _262  and  _263
REMARK  107  A    between atoms: _266  and  _268
REMARK  108  A    between atoms: _268  and  _269
REMARK  109  A    between atoms: _268  and  _271
REMARK  110  A    between atoms: _271  and  _272
REMARK  111  A    between atoms: _272  and  _273
REMARK  112  A    between atoms: _273  and  _274
REMARK  113  A    between atoms: _283  and  _285
REMARK  114  A    between atoms: _285  and  _286
REMARK  115  A    between atoms: _285  and  _288
REMARK  116  A    between atoms: _288  and  _289
REMARK  117  A    between atoms: _292  and  _294
REMARK  118  A    between atoms: _294  and  _295
REMARK  119  A    between atoms: _294  and  _297
REMARK  120  A    between atoms: _297  and  _298
REMARK  121  A    between atoms: _298  and  _299
REMARK  122  A    between atoms: _299  and  _300
REMARK  123  A    between atoms: _300  and  _301
REMARK  124  A    between atoms: _305  and  _307
REMARK  125  A    between atoms: _307  and  _308
REMARK  126  A    between atoms: _307  and  _310
REMARK  127  A    between atoms: _310  and  _311
REMARK  128  A    between atoms: _314  and  _316
REMARK  129  A    between atoms: _316  and  _317
REMARK  130  A    between atoms: _316  and  _319
REMARK  131  A    between atoms: _319  and  _320
REMARK  132  A    between atoms: _320  and  _321
REMARK  133  A    between atoms: _326  and  _328
REMARK  134  A    between atoms: _328  and  _329
REMARK  135  A    between atoms: _328  and  _331
REMARK  136  A    between atoms: _331  and  _332
REMARK  137  A    between atoms: _335  and  _337
REMARK  138  A    between atoms: _337  and  _338
REMARK  139  A    between atoms: _337  and  _340
REMARK  140  A    between atoms: _340  and  _341
REMARK  141  A    between atoms: _346  and  _347
REMARK  142  A    between atoms: _349  and  _351
REMARK  143  A    between atoms: _351  and  _352
REMARK  144  A    between atoms: _351  and  _354
REMARK  145  A    between atoms: _354  and  _355
REMARK  146  A    between atoms: _358  and  _360
REMARK  147  A    between atoms: _360  and  _361
REMARK  148  A    between atoms: _360  and  _363
REMARK  149  A    between atoms: _365  and  _367
REMARK  150  A    between atoms: _367  and  _368
REMARK  151  A    between atoms: _371  and  _373
REMARK  152  A    between atoms: _373  and  _374
REMARK  153  A    between atoms: _373  and  _376
REMARK  154  A    between atoms: _376  and  _377
REMARK  155  A    between atoms: _377  and  _378
REMARK  156  A    between atoms: _378  and  _379
REMARK  157  A    between atoms: _379  and  _380
REMARK  158  A    between atoms: _384  and  _386
REMARK  159  A    between atoms: _386  and  _387
REMARK  160  A    between atoms: _386  and  _389
REMARK  161  A    between atoms: _389  and  _390
REMARK  162  A    between atoms: _393  and  _395
REMARK  163  A    between atoms: _395  and  _396
REMARK  164  A    between atoms: _399  and  _401
REMARK  165  A    between atoms: _401  and  _402
REMARK  166  A    between atoms: _401  and  _404
REMARK  167  A    between atoms: _404  and  _405
REMARK  168  A    between atoms: _405  and  _519
REMARK  169  A    between atoms: _406  and  _408
REMARK  170  A    between atoms: _408  and  _409
REMARK  171  A    between atoms: _408  and  _411
REMARK  172  A    between atoms: _411  and  _412
REMARK  173  A    between atoms: _412  and  _413
REMARK  174  A    between atoms: _413  and  _414
REMARK  175  A    between atoms: _414  and  _415
REMARK  176  A    between atoms: _419  and  _421
REMARK  177  A    between atoms: _421  and  _422
REMARK  178  A    between atoms: _424  and  _426
REMARK  179  A    between atoms: _426  and  _427
REMARK  180  A    between atoms: _426  and  _429
REMARK  181  A    between atoms: _429  and  _430
REMARK  182  A    between atoms: _433  and  _435
REMARK  183  A    between atoms: _435  and  _436
REMARK  184  A    between atoms: _435  and  _438
REMARK  185  A    between atoms: _438  and  _439
REMARK  186  A    between atoms: _441  and  _443
REMARK  187  A    between atoms: _443  and  _444
REMARK  188  A    between atoms: _446  and  _448
REMARK  189  A    between atoms: _448  and  _449
REMARK  190  A    between atoms: _451  and  _453
REMARK  191  A    between atoms: _453  and  _454
REMARK  192  A    between atoms: _453  and  _456
REMARK  193  A    between atoms: _456  and  _457
REMARK  194  A    between atoms: _460  and  _462
REMARK  195  A    between atoms: _462  and  _463
REMARK  196  A    between atoms: _462  and  _465
REMARK  197  A    between atoms: _465  and  _466
REMARK  198  A    between atoms: _469  and  _471
REMARK  199  A    between atoms: _471  and  _472
REMARK  200  A    between atoms: _471  and  _474
REMARK  201  A    between atoms: _474  and  _475
REMARK  202  A    between atoms: _477  and  _479
REMARK  203  A    between atoms: _479  and  _480
REMARK  204  A    between atoms: _479  and  _482
REMARK  205  A    between atoms: _482  and  _483
REMARK  206  A    between atoms: _493  and  _495
REMARK  207  A    between atoms: _495  and  _496
REMARK  208  A    between atoms: _498  and  _500
REMARK  209  A    between atoms: _500  and  _501
REMARK  210  A    between atoms: _500  and  _503
REMARK  211  A    between atoms: _503  and  _504
REMARK  212  A    between atoms: _504  and  _505
REMARK  213  A    between atoms: _508  and  _510
REMARK  214  A    between atoms: _510  and  _511
REMARK  215  A    between atoms: _513  and  _515
REMARK  216  A    between atoms: _515  and  _516
REMARK  217  A    between atoms: _515  and  _518
REMARK  218  A    between atoms: _518  and  _519
REMARK  219  A    between atoms: _520  and  _522
REMARK  220  A    between atoms: _522  and  _523
REMARK  221  A    between atoms: _526  and  _528
REMARK  222  A    between atoms: _528  and  _529
REMARK  223  A    between atoms: _528  and  _531
REMARK  224  A    between atoms: _531  and  _532
REMARK  225  A    between atoms: _532  and  _533
REMARK  226  A    between atoms: _538  and  _540
REMARK  227  A    between atoms: _540  and  _541
REMARK  228  A    between atoms: _540  and  _543
REMARK  229  A    between atoms: _543  and  _544
REMARK  230  A    between atoms: _544  and  _545
REMARK  231  A    between atoms: _545  and  _546
REMARK  232  A    between atoms: _556  and  _557
REMARK  233  A    between atoms: _562  and  _564
REMARK  234  A    between atoms: _564  and  _565
REMARK  235  A    between atoms: _567  and  _569
REMARK  236  A    between atoms: _569  and  _570
REMARK  237  A    between atoms: _569  and  _572
REMARK  238  A    between atoms: _575  and  _577
REMARK  239  A    between atoms: _577  and  _578
REMARK  240  A    between atoms: _577  and  _580
REMARK  241  A    between atoms: _580  and  _581
REMARK  242  A    between atoms: _586  and  _587
REMARK  243  A    between atoms: _589  and  _591
REMARK  244  A    between atoms: _591  and  _592
REMARK  245  A    between atoms: _591  and  _594
REMARK  246  A    between atoms: _594  and  _595
REMARK                            x       y       z     vdW  Elec       q    Type
REMARK                         _______ _______ _______ _____ _____    ______ ____
ROOT
ATOM      1  O   HOH     1      15.097  12.099  47.572  0.00  0.00    +0.000 OA
ENDROOT
TORSDOF 0
REMARK  Name = ../refined-set-2016/4crb/4crb_pocket.pdb
REMARK  246 active torsions:
REMARK  status: ('A' for Active; 'I' for Inactive)
REMARK    1  A    between atoms: _1  and  _5
REMARK    2  A    between atoms: _5  and  _6
REMARK    3  A    between atoms: _5  and  _8
REMARK    4  A    between atoms: _8  and  _9
REMARK    5  A    between atoms: _12  and  _14
REMARK    6  A    between atoms: _14  and  _15
REMARK    7  A    between atoms: _14  and  _17
REMARK    8  A    between atoms: _20  and  _22
REMARK    9  A    between atoms: _22  and  _23
REMARK   10  A    between atoms: _22  and  _25
REMARK   11  A    between atoms: _25  and  _26
REMARK   12  A    between atoms: _29  and  _31
REMARK   13  A    between atoms: _31  and  _32
REMARK   14  A    between atoms: _31  and  _34
REMARK   15  A    between atoms: _34  and  _35
REMARK   16  A    between atoms: _38  and  _40
REMARK   17  A    between atoms: _40  and  _41
REMARK   18  A    between atoms: _40  and  _43
REMARK   19  A    between atoms: _43  and  _44
REMARK   20  A    between atoms: _47  and  _49
REMARK   21  A    between atoms: _49  and  _50
REMARK   22  A    between atoms: _49  and  _52
REMARK   23  A    between atoms: _52  and  _53
REMARK   24  A    between atoms: _56  and  _58
REMARK   25  A    between atoms: _58  and  _59
REMARK   26  A    between atoms: _58  and  _61
REMARK   27  A    between atoms: _61  and  _62
REMARK   28  A    between atoms: _62  and  _63
REMARK   29  A    between atoms: _68  and  _70
REMARK   30  A    between atoms: _70  and  _71
REMARK   31  A    between atoms: _70  and  _73
REMARK   32  A    between atoms: _73  and  _74
REMARK   33  A    between atoms: _74  and  _75
REMARK   34  A    between atoms: _75  and  _76
REMARK   35  A    between atoms: _85  and  _87
REMARK   36  A    between atoms: _87  and  _88
REMARK   37  A    between atoms: _87  and  _90
REMARK   38  A    between atoms: _90  and  _91
REMARK   39  A    between atoms: _96  and  _98
REMARK   40  A    between atoms: _98  and  _99
REMARK   41  A    between atoms: _98  and  _101
REMARK   42  A    between atoms: _101  and  _102
REMARK   43  A    between atoms: _105  and  _107
REMARK   44  A    between atoms: _107  and  _108
REMARK   45  A    between atoms: _107  and  _110
REMARK   46  A    between atoms: _110  and  _111
REMARK   47  A    between atoms: _111  and  _146
REMARK   48  A    between atoms: _112  and  _114
REMARK   49  A    between atoms: _114  and  _115
REMARK   50  A    between atoms: _117  and  _119
REMARK   51  A    between atoms: _119  and  _120
REMARK   52  A    between atoms: _123  and  _125
REMARK   53  A    between atoms: _125  and  _126
REMARK   54  A    between atoms: _129  and  _131
REMARK   55  A    between atoms: _131  and  _132
REMARK   56  A    between atoms: _131  and  _134
REMARK   57  A    between atoms: _134  and  _135
REMARK   58  A    between atoms: _140  and  _142
REMARK   59  A    between atoms: _142  and  _143
REMARK   60  A    between atoms: _142  and  _145
REMARK   61  A    between atoms: _145  and  _146
REMARK   62  A    between atoms: _147  and  _149
REMARK   63  A    between atoms: _149  and  _150
REMARK   64  A    between atoms: _149  and  _152
REMARK   65  A    between atoms: _152  and  _153
REMARK   66  A    between atoms: _159  and  _161
REMARK   67  A    between atoms: _161  and  _162
REMARK   68  A    between atoms: _161  and  _164
REMARK   69  A    between atoms: _164  and  _165
REMARK   70  A    between atoms: _170  and  _171
REMARK   71  A    between atoms: _173  and  _175
REMARK   72  A    between atoms: _175  and  _176
REMARK   73  A    between atoms: _178  and  _180
REMARK   74  A    between atoms: _180  and  _181
REMARK   75  A    between atoms: _180  and  _183
REMARK   76  A    between atoms: _186  and  _188
REMARK   77  A    between atoms: _188  and  _189
REMARK   78  A    between atoms: _192  and  _194
REMARK   79  A    between atoms: _194  and  _195
REMARK   80  A    between atoms: _194  and  _197
REMARK   81  A    between atoms: _197  and  _198
REMARK   82  A    between atoms: _201  and  _203
REMARK   83  A    between atoms: _203  and  _204
REMARK   84  A    between atoms: _203  and  _206
REMARK   85  A    between atoms: _209  and  _211
REMARK   86  A    between atoms: _211  and  _212
REMARK   87  A    between atoms: _211  and  _214
REMARK   88  A    between atoms: _214  and  _215
REMARK   89  A    between atoms: _225  and  _227
REMARK   90  A    between atoms: _227  and  _228
REMARK   91  A    between atoms: _230  and  _232
REMARK   92  A    between atoms: _232  and  _233
REMARK   93  A    between atoms: _232  and  _235
REMARK   94  A    between atoms: _235  and  _236
REMARK   95  A    between atoms: _241  and  _242
REMARK   96  A    between atoms: _244  and  _246
REMARK   97  A    between atoms: _246  and  _247
REMARK   98  A    between atoms: _246  and  _249
REMARK   99  A    between atoms: _249  and  _250
REMARK  100  A    between atoms: _250  and  _251
REMARK  101  A    between atoms: _251  and  _252
REMARK  102  A    between atoms: _252  and  _253
REMARK  103  A    between atoms: _257  and  _259
REMARK  104  A    between atoms: _259  and  _260
REMARK  105  A    between atoms: _259  and  _262
REMARK  106  A    between atoms: _262  and  _263
REMARK  107  A    between atoms: _266  and  _268
REMARK  108  A    between atoms: _268  and  _269
REMARK  109  A    between atoms: _268  and  _271
REMARK  110  A    between atoms: _271  and  _272
REMARK  111  A    between atoms: _272  and  _273
REMARK  112  A    between atoms: _273  and  _274
REMARK  113  A    between atoms: _283  and  _285
REMARK  114  A    between atoms: _285  and  _286
REMARK  115  A    between atoms: _285  and  _288
REMARK  116  A    between atoms: _288  and  _289
REMARK  117  A    between atoms: _292  and  _294
REMARK  118  A    between atoms: _294  and  _295
REMARK  119  A    between atoms: _294  and  _297
REMARK  120  A    between atoms: _297  and  _298
REMARK  121  A    between atoms: _298  and  _299
REMARK  122  A    between atoms: _299  and  _300
REMARK  123  A    between atoms: _300  and  _301
REMARK  124  A    between atoms: _305  and  _307
REMARK  125  A    between atoms: _307  and  _308
REMARK  126  A    between atoms: _307  and  _310
REMARK  127  A    between atoms: _310  and  _311
REMARK  128  A    between atoms: _314  and  _316
REMARK  129  A    between atoms: _316  and  _317
REMARK  130  A    between atoms: _316  and  _319
REMARK  131  A    between atoms: _319  and  _320
REMARK  132  A    between atoms: _320  and  _321
REMARK  133  A    between atoms: _326  and  _328
REMARK  134  A    between atoms: _328  and  _329
REMARK  135  A    between atoms: _328  and  _331
REMARK  136  A    between atoms: _331  and  _332
REMARK  137  A    between atoms: _335  and  _337
REMARK  138  A    between atoms: _337  and  _338
REMARK  139  A    between atoms: _337  and  _340
REMARK  140  A    between atoms: _340  and  _341
REMARK  141  A    between atoms: _346  and  _347
REMARK  142  A    between atoms: _349  and  _351
REMARK  143  A    between atoms: _351  and  _352
REMARK  144  A    between atoms: _351  and  _354
REMARK  145  A    between atoms: _354  and  _355
REMARK  146  A    between atoms: _358  and  _360
REMARK  147  A    between atoms: _360  and  _361
REMARK  148  A    between atoms: _360  and  _363
REMARK  149  A    between atoms: _365  and  _367
REMARK  150  A    between atoms: _367  and  _368
REMARK  151  A    between atoms: _371  and  _373
REMARK  152  A    between atoms: _373  and  _374
REMARK  153  A    between atoms: _373  and  _376
REMARK  154  A    between atoms: _376  and  _377
REMARK  155  A    between atoms: _377  and  _378
REMARK  156  A    between atoms: _378  and  _379
REMARK  157  A    between atoms: _379  and  _380
REMARK  158  A    between atoms: _384  and  _386
REMARK  159  A    between atoms: _386  and  _387
REMARK  160  A    between atoms: _386  and  _389
REMARK  161  A    between atoms: _389  and  _390
REMARK  162  A    between atoms: _393  and  _395
REMARK  163  A    between atoms: _395  and  _396
REMARK  164  A    between atoms: _399  and  _401
REMARK  165  A    between atoms: _401  and  _402
REMARK  166  A    between atoms: _401  and  _404
REMARK  167  A    between atoms: _404  and  _405
REMARK  168  A    between atoms: _405  and  _519
REMARK  169  A    between atoms: _406  and  _408
REMARK  170  A    between atoms: _408  and  _409
REMARK  171  A    between atoms: _408  and  _411
REMARK  172  A    between atoms: _411  and  _412
REMARK  173  A    between atoms: _412  and  _413
REMARK  174  A    between atoms: _413  and  _414
REMARK  175  A    between atoms: _414  and  _415
REMARK  176  A    between atoms: _419  and  _421
REMARK  177  A    between atoms: _421  and  _422
REMARK  178  A    between atoms: _424  and  _426
REMARK  179  A    between atoms: _426  and  _427
REMARK  180  A    between atoms: _426  and  _429
REMARK  181  A    between atoms: _429  and  _430
REMARK  182  A    between atoms: _433  and  _435
REMARK  183  A    between atoms: _435  and  _436
REMARK  184  A    between atoms: _435  and  _438
REMARK  185  A    between atoms: _438  and  _439
REMARK  186  A    between atoms: _441  and  _443
REMARK  187  A    between atoms: _443  and  _444
REMARK  188  A    between atoms: _446  and  _448
REMARK  189  A    between atoms: _448  and  _449
REMARK  190  A    between atoms: _451  and  _453
REMARK  191  A    between atoms: _453  and  _454
REMARK  192  A    between atoms: _453  and  _456
REMARK  193  A    between atoms: _456  and  _457
REMARK  194  A    between atoms: _460  and  _462
REMARK  195  A    between atoms: _462  and  _463
REMARK  196  A    between atoms: _462  and  _465
REMARK  197  A    between atoms: _465  and  _466
REMARK  198  A    between atoms: _469  and  _471
REMARK  199  A    between atoms: _471  and  _472
REMARK  200  A    between atoms: _471  and  _474
REMARK  201  A    between atoms: _474  and  _475
REMARK  202  A    between atoms: _477  and  _479
REMARK  203  A    between atoms: _479  and  _480
REMARK  204  A    between atoms: _479  and  _482
REMARK  205  A    between atoms: _482  and  _483
REMARK  206  A    between atoms: _493  and  _495
REMARK  207  A    between atoms: _495  and  _496
REMARK  208  A    between atoms: _498  and  _500
REMARK  209  A    between atoms: _500  and  _501
REMARK  210  A    between atoms: _500  and  _503
REMARK  211  A    between atoms: _503  and  _504
REMARK  212  A    between atoms: _504  and  _505
REMARK  213  A    between atoms: _508  and  _510
REMARK  214  A    between atoms: _510  and  _511
REMARK  215  A    between atoms: _513  and  _515
REMARK  216  A    between atoms: _515  and  _516
REMARK  217  A    between atoms: _515  and  _518
REMARK  218  A    between atoms: _518  and  _519
REMARK  219  A    between atoms: _520  and  _522
REMARK  220  A    between atoms: _522  and  _523
REMARK  221  A    between atoms: _526  and  _528
REMARK  222  A    between atoms: _528  and  _529
REMARK  223  A    between atoms: _528  and  _531
REMARK  224  A    between atoms: _531  and  _532
REMARK  225  A    between atoms: _532  and  _533
REMARK  226  A    between atoms: _538  and  _540
REMARK  227  A    between atoms: _540  and  _541
REMARK  228  A    between atoms: _540  and  _543
REMARK  229  A    between atoms: _543  and  _544
REMARK  230  A    between atoms: _544  and  _545
REMARK  231  A    between atoms: _545  and  _546
REMARK  232  A    between atoms: _556  and  _557
REMARK  233  A    between atoms: _562  and  _564
REMARK  234  A    between atoms: _564  and  _565
REMARK  235  A    between atoms: _567  and  _569
REMARK  236  A    between atoms: _569  and  _570
REMARK  237  A    between atoms: _569  and  _572
REMARK  238  A    between atoms: _575  and  _577
REMARK  239  A    between atoms: _577  and  _578
REMARK  240  A    between atoms: _577  and  _580
REMARK  241  A    between atoms: _580  and  _581
REMARK  242  A    between atoms: _586  and  _587
REMARK  243  A    between atoms: _589  and  _591
REMARK  244  A    between atoms: _591  and  _592
REMARK  245  A    between atoms: _591  and  _594
REMARK  246  A    between atoms: _594  and  _595
REMARK                            x       y       z     vdW  Elec       q    Type
REMARK                         _______ _______ _______ _____ _____    ______ ____
ROOT
ATOM      1  O   HOH     1      22.669  13.308  53.904  0.00  0.00    +0.000 OA
ENDROOT
TORSDOF 0
REMARK  Name = ../refined-set-2016/4crb/4crb_pocket.pdb
REMARK  246 active torsions:
REMARK  status: ('A' for Active; 'I' for Inactive)
REMARK    1  A    between atoms: _1  and  _5
REMARK    2  A    between atoms: _5  and  _6
REMARK    3  A    between atoms: _5  and  _8
REMARK    4  A    between atoms: _8  and  _9
REMARK    5  A    between atoms: _12  and  _14
REMARK    6  A    between atoms: _14  and  _15
REMARK    7  A    between atoms: _14  and  _17
REMARK    8  A    between atoms: _20  and  _22
REMARK    9  A    between atoms: _22  and  _23
REMARK   10  A    between atoms: _22  and  _25
REMARK   11  A    between atoms: _25  and  _26
REMARK   12  A    between atoms: _29  and  _31
REMARK   13  A    between atoms: _31  and  _32
REMARK   14  A    between atoms: _31  and  _34
REMARK   15  A    between atoms: _34  and  _35
REMARK   16  A    between atoms: _38  and  _40
REMARK   17  A    between atoms: _40  and  _41
REMARK   18  A    between atoms: _40  and  _43
REMARK   19  A    between atoms: _43  and  _44
REMARK   20  A    between atoms: _47  and  _49
REMARK   21  A    between atoms: _49  and  _50
REMARK   22  A    between atoms: _49  and  _52
REMARK   23  A    between atoms: _52  and  _53
REMARK   24  A    between atoms: _56  and  _58
REMARK   25  A    between atoms: _58  and  _59
REMARK   26  A    between atoms: _58  and  _61
REMARK   27  A    between atoms: _61  and  _62
REMARK   28  A    between atoms: _62  and  _63
REMARK   29  A    between atoms: _68  and  _70
REMARK   30  A    between atoms: _70  and  _71
REMARK   31  A    between atoms: _70  and  _73
REMARK   32  A    between atoms: _73  and  _74
REMARK   33  A    between atoms: _74  and  _75
REMARK   34  A    between atoms: _75  and  _76
REMARK   35  A    between atoms: _85  and  _87
REMARK   36  A    between atoms: _87  and  _88
REMARK   37  A    between atoms: _87  and  _90
REMARK   38  A    between atoms: _90  and  _91
REMARK   39  A    between atoms: _96  and  _98
REMARK   40  A    between atoms: _98  and  _99
REMARK   41  A    between atoms: _98  and  _101
REMARK   42  A    between atoms: _101  and  _102
REMARK   43  A    between atoms: _105  and  _107
REMARK   44  A    between atoms: _107  and  _108
REMARK   45  A    between atoms: _107  and  _110
REMARK   46  A    between atoms: _110  and  _111
REMARK   47  A    between atoms: _111  and  _146
REMARK   48  A    between atoms: _112  and  _114
REMARK   49  A    between atoms: _114  and  _115
REMARK   50  A    between atoms: _117  and  _119
REMARK   51  A    between atoms: _119  and  _120
REMARK   52  A    between atoms: _123  and  _125
REMARK   53  A    between atoms: _125  and  _126
REMARK   54  A    between atoms: _129  and  _131
REMARK   55  A    between atoms: _131  and  _132
REMARK   56  A    between atoms: _131  and  _134
REMARK   57  A    between atoms: _134  and  _135
REMARK   58  A    between atoms: _140  and  _142
REMARK   59  A    between atoms: _142  and  _143
REMARK   60  A    between atoms: _142  and  _145
REMARK   61  A    between atoms: _145  and  _146
REMARK   62  A    between atoms: _147  and  _149
REMARK   63  A    between atoms: _149  and  _150
REMARK   64  A    between atoms: _149  and  _152
REMARK   65  A    between atoms: _152  and  _153
REMARK   66  A    between atoms: _159  and  _161
REMARK   67  A    between atoms: _161  and  _162
REMARK   68  A    between atoms: _161  and  _164
REMARK   69  A    between atoms: _164  and  _165
REMARK   70  A    between atoms: _170  and  _171
REMARK   71  A    between atoms: _173  and  _175
REMARK   72  A    between atoms: _175  and  _176
REMARK   73  A    between atoms: _178  and  _180
REMARK   74  A    between atoms: _180  and  _181
REMARK   75  A    between atoms: _180  and  _183
REMARK   76  A    between atoms: _186  and  _188
REMARK   77  A    between atoms: _188  and  _189
REMARK   78  A    between atoms: _192  and  _194
REMARK   79  A    between atoms: _194  and  _195
REMARK   80  A    between atoms: _194  and  _197
REMARK   81  A    between atoms: _197  and  _198
REMARK   82  A    between atoms: _201  and  _203
REMARK   83  A    between atoms: _203  and  _204
REMARK   84  A    between atoms: _203  and  _206
REMARK   85  A    between atoms: _209  and  _211
REMARK   86  A    between atoms: _211  and  _212
REMARK   87  A    between atoms: _211  and  _214
REMARK   88  A    between atoms: _214  and  _215
REMARK   89  A    between atoms: _225  and  _227
REMARK   90  A    between atoms: _227  and  _228
REMARK   91  A    between atoms: _230  and  _232
REMARK   92  A    between atoms: _232  and  _233
REMARK   93  A    between atoms: _232  and  _235
REMARK   94  A    between atoms: _235  and  _236
REMARK   95  A    between atoms: _241  and  _242
REMARK   96  A    between atoms: _244  and  _246
REMARK   97  A    between atoms: _246  and  _247
REMARK   98  A    between atoms: _246  and  _249
REMARK   99  A    between atoms: _249  and  _250
REMARK  100  A    between atoms: _250  and  _251
REMARK  101  A    between atoms: _251  and  _252
REMARK  102  A    between atoms: _252  and  _253
REMARK  103  A    between atoms: _257  and  _259
REMARK  104  A    between atoms: _259  and  _260
REMARK  105  A    between atoms: _259  and  _262
REMARK  106  A    between atoms: _262  and  _263
REMARK  107  A    between atoms: _266  and  _268
REMARK  108  A    between atoms: _268  and  _269
REMARK  109  A    between atoms: _268  and  _271
REMARK  110  A    between atoms: _271  and  _272
REMARK  111  A    between atoms: _272  and  _273
REMARK  112  A    between atoms: _273  and  _274
REMARK  113  A    between atoms: _283  and  _285
REMARK  114  A    between atoms: _285  and  _286
REMARK  115  A    between atoms: _285  and  _288
REMARK  116  A    between atoms: _288  and  _289
REMARK  117  A    between atoms: _292  and  _294
REMARK  118  A    between atoms: _294  and  _295
REMARK  119  A    between atoms: _294  and  _297
REMARK  120  A    between atoms: _297  and  _298
REMARK  121  A    between atoms: _298  and  _299
REMARK  122  A    between atoms: _299  and  _300
REMARK  123  A    between atoms: _300  and  _301
REMARK  124  A    between atoms: _305  and  _307
REMARK  125  A    between atoms: _307  and  _308
REMARK  126  A    between atoms: _307  and  _310
REMARK  127  A    between atoms: _310  and  _311
REMARK  128  A    between atoms: _314  and  _316
REMARK  129  A    between atoms: _316  and  _317
REMARK  130  A    between atoms: _316  and  _319
REMARK  131  A    between atoms: _319  and  _320
REMARK  132  A    between atoms: _320  and  _321
REMARK  133  A    between atoms: _326  and  _328
REMARK  134  A    between atoms: _328  and  _329
REMARK  135  A    between atoms: _328  and  _331
REMARK  136  A    between atoms: _331  and  _332
REMARK  137  A    between atoms: _335  and  _337
REMARK  138  A    between atoms: _337  and  _338
REMARK  139  A    between atoms: _337  and  _340
REMARK  140  A    between atoms: _340  and  _341
REMARK  141  A    between atoms: _346  and  _347
REMARK  142  A    between atoms: _349  and  _351
REMARK  143  A    between atoms: _351  and  _352
REMARK  144  A    between atoms: _351  and  _354
REMARK  145  A    between atoms: _354  and  _355
REMARK  146  A    between atoms: _358  and  _360
REMARK  147  A    between atoms: _360  and  _361
REMARK  148  A    between atoms: _360  and  _363
REMARK  149  A    between atoms: _365  and  _367
REMARK  150  A    between atoms: _367  and  _368
REMARK  151  A    between atoms: _371  and  _373
REMARK  152  A    between atoms: _373  and  _374
REMARK  153  A    between atoms: _373  and  _376
REMARK  154  A    between atoms: _376  and  _377
REMARK  155  A    between atoms: _377  and  _378
REMARK  156  A    between atoms: _378  and  _379
REMARK  157  A    between atoms: _379  and  _380
REMARK  158  A    between atoms: _384  and  _386
REMARK  159  A    between atoms: _386  and  _387
REMARK  160  A    between atoms: _386  and  _389
REMARK  161  A    between atoms: _389  and  _390
REMARK  162  A    between atoms: _393  and  _395
REMARK  163  A    between atoms: _395  and  _396
REMARK  164  A    between atoms: _399  and  _401
REMARK  165  A    between atoms: _401  and  _402
REMARK  166  A    between atoms: _401  and  _404
REMARK  167  A    between atoms: _404  and  _405
REMARK  168  A    between atoms: _405  and  _519
REMARK  169  A    between atoms: _406  and  _408
REMARK  170  A    between atoms: _408  and  _409
REMARK  171  A    between atoms: _408  and  _411
REMARK  172  A    between atoms: _411  and  _412
REMARK  173  A    between atoms: _412  and  _413
REMARK  174  A    between atoms: _413  and  _414
REMARK  175  A    between atoms: _414  and  _415
REMARK  176  A    between atoms: _419  and  _421
REMARK  177  A    between atoms: _421  and  _422
REMARK  178  A    between atoms: _424  and  _426
REMARK  179  A    between atoms: _426  and  _427
REMARK  180  A    between atoms: _426  and  _429
REMARK  181  A    between atoms: _429  and  _430
REMARK  182  A    between atoms: _433  and  _435
REMARK  183  A    between atoms: _435  and  _436
REMARK  184  A    between atoms: _435  and  _438
REMARK  185  A    between atoms: _438  and  _439
REMARK  186  A    between atoms: _441  and  _443
REMARK  187  A    between atoms: _443  and  _444
REMARK  188  A    between atoms: _446  and  _448
REMARK  189  A    between atoms: _448  and  _449
REMARK  190  A    between atoms: _451  and  _453
REMARK  191  A    between atoms: _453  and  _454
REMARK  192  A    between atoms: _453  and  _456
REMARK  193  A    between atoms: _456  and  _457
REMARK  194  A    between atoms: _460  and  _462
REMARK  195  A    between atoms: _462  and  _463
REMARK  196  A    between atoms: _462  and  _465
REMARK  197  A    between atoms: _465  and  _466
REMARK  198  A    between atoms: _469  and  _471
REMARK  199  A    between atoms: _471  and  _472
REMARK  200  A    between atoms: _471  and  _474
REMARK  201  A    between atoms: _474  and  _475
REMARK  202  A    between atoms: _477  and  _479
REMARK  203  A    between atoms: _479  and  _480
REMARK  204  A    between atoms: _479  and  _482
REMARK  205  A    between atoms: _482  and  _483
REMARK  206  A    between atoms: _493  and  _495
REMARK  207  A    between atoms: _495  and  _496
REMARK  208  A    between atoms: _498  and  _500
REMARK  209  A    between atoms: _500  and  _501
REMARK  210  A    between atoms: _500  and  _503
REMARK  211  A    between atoms: _503  and  _504
REMARK  212  A    between atoms: _504  and  _505
REMARK  213  A    between atoms: _508  and  _510
REMARK  214  A    between atoms: _510  and  _511
REMARK  215  A    between atoms: _513  and  _515
REMARK  216  A    between atoms: _515  and  _516
REMARK  217  A    between atoms: _515  and  _518
REMARK  218  A    between atoms: _518  and  _519
REMARK  219  A    between atoms: _520  and  _522
REMARK  220  A    between atoms: _522  and  _523
REMARK  221  A    between atoms: _526  and  _528
REMARK  222  A    between atoms: _528  and  _529
REMARK  223  A    between atoms: _528  and  _531
REMARK  224  A    between atoms: _531  and  _532
REMARK  225  A    between atoms: _532  and  _533
REMARK  226  A    between atoms: _538  and  _540
REMARK  227  A    between atoms: _540  and  _541
REMARK  228  A    between atoms: _540  and  _543
REMARK  229  A    between atoms: _543  and  _544
REMARK  230  A    between atoms: _544  and  _545
REMARK  231  A    between atoms: _545  and  _546
REMARK  232  A    between atoms: _556  and  _557
REMARK  233  A    between atoms: _562  and  _564
REMARK  234  A    between atoms: _564  and  _565
REMARK  235  A    between atoms: _567  and  _569
REMARK  236  A    between atoms: _569  and  _570
REMARK  237  A    between atoms: _569  and  _572
REMARK  238  A    between atoms: _575  and  _577
REMARK  239  A    between atoms: _577  and  _578
REMARK  240  A    between atoms: _577  and  _580
REMARK  241  A    between atoms: _580  and  _581
REMARK  242  A    between atoms: _586  and  _587
REMARK  243  A    between atoms: _589  and  _591
REMARK  244  A    between atoms: _591  and  _592
REMARK  245  A    between atoms: _591  and  _594
REMARK  246  A    between atoms: _594  and  _595
REMARK                            x       y       z     vdW  Elec       q    Type
REMARK                         _______ _______ _______ _____ _____    ______ ____
ROOT
ATOM      1  O   HOH     1      20.322  15.197  51.752  0.00  0.00    +0.000 OA
ENDROOT
TORSDOF 0
REMARK  Name = ../refined-set-2016/4crb/4crb_pocket.pdb
REMARK  246 active torsions:
REMARK  status: ('A' for Active; 'I' for Inactive)
REMARK    1  A    between atoms: _1  and  _5
REMARK    2  A    between atoms: _5  and  _6
REMARK    3  A    between atoms: _5  and  _8
REMARK    4  A    between atoms: _8  and  _9
REMARK    5  A    between atoms: _12  and  _14
REMARK    6  A    between atoms: _14  and  _15
REMARK    7  A    between atoms: _14  and  _17
REMARK    8  A    between atoms: _20  and  _22
REMARK    9  A    between atoms: _22  and  _23
REMARK   10  A    between atoms: _22  and  _25
REMARK   11  A    between atoms: _25  and  _26
REMARK   12  A    between atoms: _29  and  _31
REMARK   13  A    between atoms: _31  and  _32
REMARK   14  A    between atoms: _31  and  _34
REMARK   15  A    between atoms: _34  and  _35
REMARK   16  A    between atoms: _38  and  _40
REMARK   17  A    between atoms: _40  and  _41
REMARK   18  A    between atoms: _40  and  _43
REMARK   19  A    between atoms: _43  and  _44
REMARK   20  A    between atoms: _47  and  _49
REMARK   21  A    between atoms: _49  and  _50
REMARK   22  A    between atoms: _49  and  _52
REMARK   23  A    between atoms: _52  and  _53
REMARK   24  A    between atoms: _56  and  _58
REMARK   25  A    between atoms: _58  and  _59
REMARK   26  A    between atoms: _58  and  _61
REMARK   27  A    between atoms: _61  and  _62
REMARK   28  A    between atoms: _62  and  _63
REMARK   29  A    between atoms: _68  and  _70
REMARK   30  A    between atoms: _70  and  _71
REMARK   31  A    between atoms: _70  and  _73
REMARK   32  A    between atoms: _73  and  _74
REMARK   33  A    between atoms: _74  and  _75
REMARK   34  A    between atoms: _75  and  _76
REMARK   35  A    between atoms: _85  and  _87
REMARK   36  A    between atoms: _87  and  _88
REMARK   37  A    between atoms: _87  and  _90
REMARK   38  A    between atoms: _90  and  _91
REMARK   39  A    between atoms: _96  and  _98
REMARK   40  A    between atoms: _98  and  _99
REMARK   41  A    between atoms: _98  and  _101
REMARK   42  A    between atoms: _101  and  _102
REMARK   43  A    between atoms: _105  and  _107
REMARK   44  A    between atoms: _107  and  _108
REMARK   45  A    between atoms: _107  and  _110
REMARK   46  A    between atoms: _110  and  _111
REMARK   47  A    between atoms: _111  and  _146
REMARK   48  A    between atoms: _112  and  _114
REMARK   49  A    between atoms: _114  and  _115
REMARK   50  A    between atoms: _117  and  _119
REMARK   51  A    between atoms: _119  and  _120
REMARK   52  A    between atoms: _123  and  _125
REMARK   53  A    between atoms: _125  and  _126
REMARK   54  A    between atoms: _129  and  _131
REMARK   55  A    between atoms: _131  and  _132
REMARK   56  A    between atoms: _131  and  _134
REMARK   57  A    between atoms: _134  and  _135
REMARK   58  A    between atoms: _140  and  _142
REMARK   59  A    between atoms: _142  and  _143
REMARK   60  A    between atoms: _142  and  _145
REMARK   61  A    between atoms: _145  and  _146
REMARK   62  A    between atoms: _147  and  _149
REMARK   63  A    between atoms: _149  and  _150
REMARK   64  A    between atoms: _149  and  _152
REMARK   65  A    between atoms: _152  and  _153
REMARK   66  A    between atoms: _159  and  _161
REMARK   67  A    between atoms: _161  and  _162
REMARK   68  A    between atoms: _161  and  _164
REMARK   69  A    between atoms: _164  and  _165
REMARK   70  A    between atoms: _170  and  _171
REMARK   71  A    between atoms: _173  and  _175
REMARK   72  A    between atoms: _175  and  _176
REMARK   73  A    between atoms: _178  and  _180
REMARK   74  A    between atoms: _180  and  _181
REMARK   75  A    between atoms: _180  and  _183
REMARK   76  A    between atoms: _186  and  _188
REMARK   77  A    between atoms: _188  and  _189
REMARK   78  A    between atoms: _192  and  _194
REMARK   79  A    between atoms: _194  and  _195
REMARK   80  A    between atoms: _194  and  _197
REMARK   81  A    between atoms: _197  and  _198
REMARK   82  A    between atoms: _201  and  _203
REMARK   83  A    between atoms: _203  and  _204
REMARK   84  A    between atoms: _203  and  _206
REMARK   85  A    between atoms: _209  and  _211
REMARK   86  A    between atoms: _211  and  _212
REMARK   87  A    between atoms: _211  and  _214
REMARK   88  A    between atoms: _214  and  _215
REMARK   89  A    between atoms: _225  and  _227
REMARK   90  A    between atoms: _227  and  _228
REMARK   91  A    between atoms: _230  and  _232
REMARK   92  A    between atoms: _232  and  _233
REMARK   93  A    between atoms: _232  and  _235
REMARK   94  A    between atoms: _235  and  _236
REMARK   95  A    between atoms: _241  and  _242
REMARK   96  A    between atoms: _244  and  _246
REMARK   97  A    between atoms: _246  and  _247
REMARK   98  A    between atoms: _246  and  _249
REMARK   99  A    between atoms: _249  and  _250
REMARK  100  A    between atoms: _250  and  _251
REMARK  101  A    between atoms: _251  and  _252
REMARK  102  A    between atoms: _252  and  _253
REMARK  103  A    between atoms: _257  and  _259
REMARK  104  A    between atoms: _259  and  _260
REMARK  105  A    between atoms: _259  and  _262
REMARK  106  A    between atoms: _262  and  _263
REMARK  107  A    between atoms: _266  and  _268
REMARK  108  A    between atoms: _268  and  _269
REMARK  109  A    between atoms: _268  and  _271
REMARK  110  A    between atoms: _271  and  _272
REMARK  111  A    between atoms: _272  and  _273
REMARK  112  A    between atoms: _273  and  _274
REMARK  113  A    between atoms: _283  and  _285
REMARK  114  A    between atoms: _285  and  _286
REMARK  115  A    between atoms: _285  and  _288
REMARK  116  A    between atoms: _288  and  _289
REMARK  117  A    between atoms: _292  and  _294
REMARK  118  A    between atoms: _294  and  _295
REMARK  119  A    between atoms: _294  and  _297
REMARK  120  A    between atoms: _297  and  _298
REMARK  121  A    between atoms: _298  and  _299
REMARK  122  A    between atoms: _299  and  _300
REMARK  123  A    between atoms: _300  and  _301
REMARK  124  A    between atoms: _305  and  _307
REMARK  125  A    between atoms: _307  and  _308
REMARK  126  A    between atoms: _307  and  _310
REMARK  127  A    between atoms: _310  and  _311
REMARK  128  A    between atoms: _314  and  _316
REMARK  129  A    between atoms: _316  and  _317
REMARK  130  A    between atoms: _316  and  _319
REMARK  131  A    between atoms: _319  and  _320
REMARK  132  A    between atoms: _320  and  _321
REMARK  133  A    between atoms: _326  and  _328
REMARK  134  A    between atoms: _328  and  _329
REMARK  135  A    between atoms: _328  and  _331
REMARK  136  A    between atoms: _331  and  _332
REMARK  137  A    between atoms: _335  and  _337
REMARK  138  A    between atoms: _337  and  _338
REMARK  139  A    between atoms: _337  and  _340
REMARK  140  A    between atoms: _340  and  _341
REMARK  141  A    between atoms: _346  and  _347
REMARK  142  A    between atoms: _349  and  _351
REMARK  143  A    between atoms: _351  and  _352
REMARK  144  A    between atoms: _351  and  _354
REMARK  145  A    between atoms: _354  and  _355
REMARK  146  A    between atoms: _358  and  _360
REMARK  147  A    between atoms: _360  and  _361
REMARK  148  A    between atoms: _360  and  _363
REMARK  149  A    between atoms: _365  and  _367
REMARK  150  A    between atoms: _367  and  _368
REMARK  151  A    between atoms: _371  and  _373
REMARK  152  A    between atoms: _373  and  _374
REMARK  153  A    between atoms: _373  and  _376
REMARK  154  A    between atoms: _376  and  _377
REMARK  155  A    between atoms: _377  and  _378
REMARK  156  A    between atoms: _378  and  _379
REMARK  157  A    between atoms: _379  and  _380
REMARK  158  A    between atoms: _384  and  _386
REMARK  159  A    between atoms: _386  and  _387
REMARK  160  A    between atoms: _386  and  _389
REMARK  161  A    between atoms: _389  and  _390
REMARK  162  A    between atoms: _393  and  _395
REMARK  163  A    between atoms: _395  and  _396
REMARK  164  A    between atoms: _399  and  _401
REMARK  165  A    between atoms: _401  and  _402
REMARK  166  A    between atoms: _401  and  _404
REMARK  167  A    between atoms: _404  and  _405
REMARK  168  A    between atoms: _405  and  _519
REMARK  169  A    between atoms: _406  and  _408
REMARK  170  A    between atoms: _408  and  _409
REMARK  171  A    between atoms: _408  and  _411
REMARK  172  A    between atoms: _411  and  _412
REMARK  173  A    between atoms: _412  and  _413
REMARK  174  A    between atoms: _413  and  _414
REMARK  175  A    between atoms: _414  and  _415
REMARK  176  A    between atoms: _419  and  _421
REMARK  177  A    between atoms: _421  and  _422
REMARK  178  A    between atoms: _424  and  _426
REMARK  179  A    between atoms: _426  and  _427
REMARK  180  A    between atoms: _426  and  _429
REMARK  181  A    between atoms: _429  and  _430
REMARK  182  A    between atoms: _433  and  _435
REMARK  183  A    between atoms: _435  and  _436
REMARK  184  A    between atoms: _435  and  _438
REMARK  185  A    between atoms: _438  and  _439
REMARK  186  A    between atoms: _441  and  _443
REMARK  187  A    between atoms: _443  and  _444
REMARK  188  A    between atoms: _446  and  _448
REMARK  189  A    between atoms: _448  and  _449
REMARK  190  A    between atoms: _451  and  _453
REMARK  191  A    between atoms: _453  and  _454
REMARK  192  A    between atoms: _453  and  _456
REMARK  193  A    between atoms: _456  and  _457
REMARK  194  A    between atoms: _460  and  _462
REMARK  195  A    between atoms: _462  and  _463
REMARK  196  A    between atoms: _462  and  _465
REMARK  197  A    between atoms: _465  and  _466
REMARK  198  A    between atoms: _469  and  _471
REMARK  199  A    between atoms: _471  and  _472
REMARK  200  A    between atoms: _471  and  _474
REMARK  201  A    between atoms: _474  and  _475
REMARK  202  A    between atoms: _477  and  _479
REMARK  203  A    between atoms: _479  and  _480
REMARK  204  A    between atoms: _479  and  _482
REMARK  205  A    between atoms: _482  and  _483
REMARK  206  A    between atoms: _493  and  _495
REMARK  207  A    between atoms: _495  and  _496
REMARK  208  A    between atoms: _498  and  _500
REMARK  209  A    between atoms: _500  and  _501
REMARK  210  A    between atoms: _500  and  _503
REMARK  211  A    between atoms: _503  and  _504
REMARK  212  A    between atoms: _504  and  _505
REMARK  213  A    between atoms: _508  and  _510
REMARK  214  A    between atoms: _510  and  _511
REMARK  215  A    between atoms: _513  and  _515
REMARK  216  A    between atoms: _515  and  _516
REMARK  217  A    between atoms: _515  and  _518
REMARK  218  A    between atoms: _518  and  _519
REMARK  219  A    between atoms: _520  and  _522
REMARK  220  A    between atoms: _522  and  _523
REMARK  221  A    between atoms: _526  and  _528
REMARK  222  A    between atoms: _528  and  _529
REMARK  223  A    between atoms: _528  and  _531
REMARK  224  A    between atoms: _531  and  _532
REMARK  225  A    between atoms: _532  and  _533
REMARK  226  A    between atoms: _538  and  _540
REMARK  227  A    between atoms: _540  and  _541
REMARK  228  A    between atoms: _540  and  _543
REMARK  229  A    between atoms: _543  and  _544
REMARK  230  A    between atoms: _544  and  _545
REMARK  231  A    between atoms: _545  and  _546
REMARK  232  A    between atoms: _556  and  _557
REMARK  233  A    between atoms: _562  and  _564
REMARK  234  A    between atoms: _564  and  _565
REMARK  235  A    between atoms: _567  and  _569
REMARK  236  A    between atoms: _569  and  _570
REMARK  237  A    between atoms: _569  and  _572
REMARK  238  A    between atoms: _575  and  _577
REMARK  239  A    between atoms: _577  and  _578
REMARK  240  A    between atoms: _577  and  _580
REMARK  241  A    between atoms: _580  and  _581
REMARK  242  A    between atoms: _586  and  _587
REMARK  243  A    between atoms: _589  and  _591
REMARK  244  A    between atoms: _591  and  _592
REMARK  245  A    between atoms: _591  and  _594
REMARK  246  A    between atoms: _594  and  _595
REMARK                            x       y       z     vdW  Elec       q    Type
REMARK                         _______ _______ _______ _____ _____    ______ ____
ROOT
ATOM      1  O   HOH     1      16.667  17.932  52.230  0.00  0.00    +0.000 OA
ENDROOT
TORSDOF 0
REMARK  Name = ../refined-set-2016/4crb/4crb_pocket.pdb
REMARK  246 active torsions:
REMARK  status: ('A' for Active; 'I' for Inactive)
REMARK    1  A    between atoms: _1  and  _5
REMARK    2  A    between atoms: _5  and  _6
REMARK    3  A    between atoms: _5  and  _8
REMARK    4  A    between atoms: _8  and  _9
REMARK    5  A    between atoms: _12  and  _14
REMARK    6  A    between atoms: _14  and  _15
REMARK    7  A    between atoms: _14  and  _17
REMARK    8  A    between atoms: _20  and  _22
REMARK    9  A    between atoms: _22  and  _23
REMARK   10  A    between atoms: _22  and  _25
REMARK   11  A    between atoms: _25  and  _26
REMARK   12  A    between atoms: _29  and  _31
REMARK   13  A    between atoms: _31  and  _32
REMARK   14  A    between atoms: _31  and  _34
REMARK   15  A    between atoms: _34  and  _35
REMARK   16  A    between atoms: _38  and  _40
REMARK   17  A    between atoms: _40  and  _41
REMARK   18  A    between atoms: _40  and  _43
REMARK   19  A    between atoms: _43  and  _44
REMARK   20  A    between atoms: _47  and  _49
REMARK   21  A    between atoms: _49  and  _50
REMARK   22  A    between atoms: _49  and  _52
REMARK   23  A    between atoms: _52  and  _53
REMARK   24  A    between atoms: _56  and  _58
REMARK   25  A    between atoms: _58  and  _59
REMARK   26  A    between atoms: _58  and  _61
REMARK   27  A    between atoms: _61  and  _62
REMARK   28  A    between atoms: _62  and  _63
REMARK   29  A    between atoms: _68  and  _70
REMARK   30  A    between atoms: _70  and  _71
REMARK   31  A    between atoms: _70  and  _73
REMARK   32  A    between atoms: _73  and  _74
REMARK   33  A    between atoms: _74  and  _75
REMARK   34  A    between atoms: _75  and  _76
REMARK   35  A    between atoms: _85  and  _87
REMARK   36  A    between atoms: _87  and  _88
REMARK   37  A    between atoms: _87  and  _90
REMARK   38  A    between atoms: _90  and  _91
REMARK   39  A    between atoms: _96  and  _98
REMARK   40  A    between atoms: _98  and  _99
REMARK   41  A    between atoms: _98  and  _101
REMARK   42  A    between atoms: _101  and  _102
REMARK   43  A    between atoms: _105  and  _107
REMARK   44  A    between atoms: _107  and  _108
REMARK   45  A    between atoms: _107  and  _110
REMARK   46  A    between atoms: _110  and  _111
REMARK   47  A    between atoms: _111  and  _146
REMARK   48  A    between atoms: _112  and  _114
REMARK   49  A    between atoms: _114  and  _115
REMARK   50  A    between atoms: _117  and  _119
REMARK   51  A    between atoms: _119  and  _120
REMARK   52  A    between atoms: _123  and  _125
REMARK   53  A    between atoms: _125  and  _126
REMARK   54  A    between atoms: _129  and  _131
REMARK   55  A    between atoms: _131  and  _132
REMARK   56  A    between atoms: _131  and  _134
REMARK   57  A    between atoms: _134  and  _135
REMARK   58  A    between atoms: _140  and  _142
REMARK   59  A    between atoms: _142  and  _143
REMARK   60  A    between atoms: _142  and  _145
REMARK   61  A    between atoms: _145  and  _146
REMARK   62  A    between atoms: _147  and  _149
REMARK   63  A    between atoms: _149  and  _150
REMARK   64  A    between atoms: _149  and  _152
REMARK   65  A    between atoms: _152  and  _153
REMARK   66  A    between atoms: _159  and  _161
REMARK   67  A    between atoms: _161  and  _162
REMARK   68  A    between atoms: _161  and  _164
REMARK   69  A    between atoms: _164  and  _165
REMARK   70  A    between atoms: _170  and  _171
REMARK   71  A    between atoms: _173  and  _175
REMARK   72  A    between atoms: _175  and  _176
REMARK   73  A    between atoms: _178  and  _180
REMARK   74  A    between atoms: _180  and  _181
REMARK   75  A    between atoms: _180  and  _183
REMARK   76  A    between atoms: _186  and  _188
REMARK   77  A    between atoms: _188  and  _189
REMARK   78  A    between atoms: _192  and  _194
REMARK   79  A    between atoms: _194  and  _195
REMARK   80  A    between atoms: _194  and  _197
REMARK   81  A    between atoms: _197  and  _198
REMARK   82  A    between atoms: _201  and  _203
REMARK   83  A    between atoms: _203  and  _204
REMARK   84  A    between atoms: _203  and  _206
REMARK   85  A    between atoms: _209  and  _211
REMARK   86  A    between atoms: _211  and  _212
REMARK   87  A    between atoms: _211  and  _214
REMARK   88  A    between atoms: _214  and  _215
REMARK   89  A    between atoms: _225  and  _227
REMARK   90  A    between atoms: _227  and  _228
REMARK   91  A    between atoms: _230  and  _232
REMARK   92  A    between atoms: _232  and  _233
REMARK   93  A    between atoms: _232  and  _235
REMARK   94  A    between atoms: _235  and  _236
REMARK   95  A    between atoms: _241  and  _242
REMARK   96  A    between atoms: _244  and  _246
REMARK   97  A    between atoms: _246  and  _247
REMARK   98  A    between atoms: _246  and  _249
REMARK   99  A    between atoms: _249  and  _250
REMARK  100  A    between atoms: _250  and  _251
REMARK  101  A    between atoms: _251  and  _252
REMARK  102  A    between atoms: _252  and  _253
REMARK  103  A    between atoms: _257  and  _259
REMARK  104  A    between atoms: _259  and  _260
REMARK  105  A    between atoms: _259  and  _262
REMARK  106  A    between atoms: _262  and  _263
REMARK  107  A    between atoms: _266  and  _268
REMARK  108  A    between atoms: _268  and  _269
REMARK  109  A    between atoms: _268  and  _271
REMARK  110  A    between atoms: _271  and  _272
REMARK  111  A    between atoms: _272  and  _273
REMARK  112  A    between atoms: _273  and  _274
REMARK  113  A    between atoms: _283  and  _285
REMARK  114  A    between atoms: _285  and  _286
REMARK  115  A    between atoms: _285  and  _288
REMARK  116  A    between atoms: _288  and  _289
REMARK  117  A    between atoms: _292  and  _294
REMARK  118  A    between atoms: _294  and  _295
REMARK  119  A    between atoms: _294  and  _297
REMARK  120  A    between atoms: _297  and  _298
REMARK  121  A    between atoms: _298  and  _299
REMARK  122  A    between atoms: _299  and  _300
REMARK  123  A    between atoms: _300  and  _301
REMARK  124  A    between atoms: _305  and  _307
REMARK  125  A    between atoms: _307  and  _308
REMARK  126  A    between atoms: _307  and  _310
REMARK  127  A    between atoms: _310  and  _311
REMARK  128  A    between atoms: _314  and  _316
REMARK  129  A    between atoms: _316  and  _317
REMARK  130  A    between atoms: _316  and  _319
REMARK  131  A    between atoms: _319  and  _320
REMARK  132  A    between atoms: _320  and  _321
REMARK  133  A    between atoms: _326  and  _328
REMARK  134  A    between atoms: _328  and  _329
REMARK  135  A    between atoms: _328  and  _331
REMARK  136  A    between atoms: _331  and  _332
REMARK  137  A    between atoms: _335  and  _337
REMARK  138  A    between atoms: _337  and  _338
REMARK  139  A    between atoms: _337  and  _340
REMARK  140  A    between atoms: _340  and  _341
REMARK  141  A    between atoms: _346  and  _347
REMARK  142  A    between atoms: _349  and  _351
REMARK  143  A    between atoms: _351  and  _352
REMARK  144  A    between atoms: _351  and  _354
REMARK  145  A    between atoms: _354  and  _355
REMARK  146  A    between atoms: _358  and  _360
REMARK  147  A    between atoms: _360  and  _361
REMARK  148  A    between atoms: _360  and  _363
REMARK  149  A    between atoms: _365  and  _367
REMARK  150  A    between atoms: _367  and  _368
REMARK  151  A    between atoms: _371  and  _373
REMARK  152  A    between atoms: _373  and  _374
REMARK  153  A    between atoms: _373  and  _376
REMARK  154  A    between atoms: _376  and  _377
REMARK  155  A    between atoms: _377  and  _378
REMARK  156  A    between atoms: _378  and  _379
REMARK  157  A    between atoms: _379  and  _380
REMARK  158  A    between atoms: _384  and  _386
REMARK  159  A    between atoms: _386  and  _387
REMARK  160  A    between atoms: _386  and  _389
REMARK  161  A    between atoms: _389  and  _390
REMARK  162  A    between atoms: _393  and  _395
REMARK  163  A    between atoms: _395  and  _396
REMARK  164  A    between atoms: _399  and  _401
REMARK  165  A    between atoms: _401  and  _402
REMARK  166  A    between atoms: _401  and  _404
REMARK  167  A    between atoms: _404  and  _405
REMARK  168  A    between atoms: _405  and  _519
REMARK  169  A    between atoms: _406  and  _408
REMARK  170  A    between atoms: _408  and  _409
REMARK  171  A    between atoms: _408  and  _411
REMARK  172  A    between atoms: _411  and  _412
REMARK  173  A    between atoms: _412  and  _413
REMARK  174  A    between atoms: _413  and  _414
REMARK  175  A    between atoms: _414  and  _415
REMARK  176  A    between atoms: _419  and  _421
REMARK  177  A    between atoms: _421  and  _422
REMARK  178  A    between atoms: _424  and  _426
REMARK  179  A    between atoms: _426  and  _427
REMARK  180  A    between atoms: _426  and  _429
REMARK  181  A    between atoms: _429  and  _430
REMARK  182  A    between atoms: _433  and  _435
REMARK  183  A    between atoms: _435  and  _436
REMARK  184  A    between atoms: _435  and  _438
REMARK  185  A    between atoms: _438  and  _439
REMARK  186  A    between atoms: _441  and  _443
REMARK  187  A    between atoms: _443  and  _444
REMARK  188  A    between atoms: _446  and  _448
REMARK  189  A    between atoms: _448  and  _449
REMARK  190  A    between atoms: _451  and  _453
REMARK  191  A    between atoms: _453  and  _454
REMARK  192  A    between atoms: _453  and  _456
REMARK  193  A    between atoms: _456  and  _457
REMARK  194  A    between atoms: _460  and  _462
REMARK  195  A    between atoms: _462  and  _463
REMARK  196  A    between atoms: _462  and  _465
REMARK  197  A    between atoms: _465  and  _466
REMARK  198  A    between atoms: _469  and  _471
REMARK  199  A    between atoms: _471  and  _472
REMARK  200  A    between atoms: _471  and  _474
REMARK  201  A    between atoms: _474  and  _475
REMARK  202  A    between atoms: _477  and  _479
REMARK  203  A    between atoms: _479  and  _480
REMARK  204  A    between atoms: _479  and  _482
REMARK  205  A    between atoms: _482  and  _483
REMARK  206  A    between atoms: _493  and  _495
REMARK  207  A    between atoms: _495  and  _496
REMARK  208  A    between atoms: _498  and  _500
REMARK  209  A    between atoms: _500  and  _501
REMARK  210  A    between atoms: _500  and  _503
REMARK  211  A    between atoms: _503  and  _504
REMARK  212  A    between atoms: _504  and  _505
REMARK  213  A    between atoms: _508  and  _510
REMARK  214  A    between atoms: _510  and  _511
REMARK  215  A    between atoms: _513  and  _515
REMARK  216  A    between atoms: _515  and  _516
REMARK  217  A    between atoms: _515  and  _518
REMARK  218  A    between atoms: _518  and  _519
REMARK  219  A    between atoms: _520  and  _522
REMARK  220  A    between atoms: _522  and  _523
REMARK  221  A    between atoms: _526  and  _528
REMARK  222  A    between atoms: _528  and  _529
REMARK  223  A    between atoms: _528  and  _531
REMARK  224  A    between atoms: _531  and  _532
REMARK  225  A    between atoms: _532  and  _533
REMARK  226  A    between atoms: _538  and  _540
REMARK  227  A    between atoms: _540  and  _541
REMARK  228  A    between atoms: _540  and  _543
REMARK  229  A    between atoms: _543  and  _544
REMARK  230  A    between atoms: _544  and  _545
REMARK  231  A    between atoms: _545  and  _546
REMARK  232  A    between atoms: _556  and  _557
REMARK  233  A    between atoms: _562  and  _564
REMARK  234  A    between atoms: _564  and  _565
REMARK  235  A    between atoms: _567  and  _569
REMARK  236  A    between atoms: _569  and  _570
REMARK  237  A    between atoms: _569  and  _572
REMARK  238  A    between atoms: _575  and  _577
REMARK  239  A    between atoms: _577  and  _578
REMARK  240  A    between atoms: _577  and  _580
REMARK  241  A    between atoms: _580  and  _581
REMARK  242  A    between atoms: _586  and  _587
REMARK  243  A    between atoms: _589  and  _591
REMARK  244  A    between atoms: _591  and  _592
REMARK  245  A    between atoms: _591  and  _594
REMARK  246  A    between atoms: _594  and  _595
REMARK                            x       y       z     vdW  Elec       q    Type
REMARK                         _______ _______ _______ _____ _____    ______ ____
ROOT
ATOM      1  O   HOH     1      12.990   8.702  53.748  0.00  0.00    +0.000 OA
ENDROOT
TORSDOF 0
REMARK  Name = ../refined-set-2016/4crb/4crb_pocket.pdb
REMARK  246 active torsions:
REMARK  status: ('A' for Active; 'I' for Inactive)
REMARK    1  A    between atoms: _1  and  _5
REMARK    2  A    between atoms: _5  and  _6
REMARK    3  A    between atoms: _5  and  _8
REMARK    4  A    between atoms: _8  and  _9
REMARK    5  A    between atoms: _12  and  _14
REMARK    6  A    between atoms: _14  and  _15
REMARK    7  A    between atoms: _14  and  _17
REMARK    8  A    between atoms: _20  and  _22
REMARK    9  A    between atoms: _22  and  _23
REMARK   10  A    between atoms: _22  and  _25
REMARK   11  A    between atoms: _25  and  _26
REMARK   12  A    between atoms: _29  and  _31
REMARK   13  A    between atoms: _31  and  _32
REMARK   14  A    between atoms: _31  and  _34
REMARK   15  A    between atoms: _34  and  _35
REMARK   16  A    between atoms: _38  and  _40
REMARK   17  A    between atoms: _40  and  _41
REMARK   18  A    between atoms: _40  and  _43
REMARK   19  A    between atoms: _43  and  _44
REMARK   20  A    between atoms: _47  and  _49
REMARK   21  A    between atoms: _49  and  _50
REMARK   22  A    between atoms: _49  and  _52
REMARK   23  A    between atoms: _52  and  _53
REMARK   24  A    between atoms: _56  and  _58
REMARK   25  A    between atoms: _58  and  _59
REMARK   26  A    between atoms: _58  and  _61
REMARK   27  A    between atoms: _61  and  _62
REMARK   28  A    between atoms: _62  and  _63
REMARK   29  A    between atoms: _68  and  _70
REMARK   30  A    between atoms: _70  and  _71
REMARK   31  A    between atoms: _70  and  _73
REMARK   32  A    between atoms: _73  and  _74
REMARK   33  A    between atoms: _74  and  _75
REMARK   34  A    between atoms: _75  and  _76
REMARK   35  A    between atoms: _85  and  _87
REMARK   36  A    between atoms: _87  and  _88
REMARK   37  A    between atoms: _87  and  _90
REMARK   38  A    between atoms: _90  and  _91
REMARK   39  A    between atoms: _96  and  _98
REMARK   40  A    between atoms: _98  and  _99
REMARK   41  A    between atoms: _98  and  _101
REMARK   42  A    between atoms: _101  and  _102
REMARK   43  A    between atoms: _105  and  _107
REMARK   44  A    between atoms: _107  and  _108
REMARK   45  A    between atoms: _107  and  _110
REMARK   46  A    between atoms: _110  and  _111
REMARK   47  A    between atoms: _111  and  _146
REMARK   48  A    between atoms: _112  and  _114
REMARK   49  A    between atoms: _114  and  _115
REMARK   50  A    between atoms: _117  and  _119
REMARK   51  A    between atoms: _119  and  _120
REMARK   52  A    between atoms: _123  and  _125
REMARK   53  A    between atoms: _125  and  _126
REMARK   54  A    between atoms: _129  and  _131
REMARK   55  A    between atoms: _131  and  _132
REMARK   56  A    between atoms: _131  and  _134
REMARK   57  A    between atoms: _134  and  _135
REMARK   58  A    between atoms: _140  and  _142
REMARK   59  A    between atoms: _142  and  _143
REMARK   60  A    between atoms: _142  and  _145
REMARK   61  A    between atoms: _145  and  _146
REMARK   62  A    between atoms: _147  and  _149
REMARK   63  A    between atoms: _149  and  _150
REMARK   64  A    between atoms: _149  and  _152
REMARK   65  A    between atoms: _152  and  _153
REMARK   66  A    between atoms: _159  and  _161
REMARK   67  A    between atoms: _161  and  _162
REMARK   68  A    between atoms: _161  and  _164
REMARK   69  A    between atoms: _164  and  _165
REMARK   70  A    between atoms: _170  and  _171
REMARK   71  A    between atoms: _173  and  _175
REMARK   72  A    between atoms: _175  and  _176
REMARK   73  A    between atoms: _178  and  _180
REMARK   74  A    between atoms: _180  and  _181
REMARK   75  A    between atoms: _180  and  _183
REMARK   76  A    between atoms: _186  and  _188
REMARK   77  A    between atoms: _188  and  _189
REMARK   78  A    between atoms: _192  and  _194
REMARK   79  A    between atoms: _194  and  _195
REMARK   80  A    between atoms: _194  and  _197
REMARK   81  A    between atoms: _197  and  _198
REMARK   82  A    between atoms: _201  and  _203
REMARK   83  A    between atoms: _203  and  _204
REMARK   84  A    between atoms: _203  and  _206
REMARK   85  A    between atoms: _209  and  _211
REMARK   86  A    between atoms: _211  and  _212
REMARK   87  A    between atoms: _211  and  _214
REMARK   88  A    between atoms: _214  and  _215
REMARK   89  A    between atoms: _225  and  _227
REMARK   90  A    between atoms: _227  and  _228
REMARK   91  A    between atoms: _230  and  _232
REMARK   92  A    between atoms: _232  and  _233
REMARK   93  A    between atoms: _232  and  _235
REMARK   94  A    between atoms: _235  and  _236
REMARK   95  A    between atoms: _241  and  _242
REMARK   96  A    between atoms: _244  and  _246
REMARK   97  A    between atoms: _246  and  _247
REMARK   98  A    between atoms: _246  and  _249
REMARK   99  A    between atoms: _249  and  _250
REMARK  100  A    between atoms: _250  and  _251
REMARK  101  A    between atoms: _251  and  _252
REMARK  102  A    between atoms: _252  and  _253
REMARK  103  A    between atoms: _257  and  _259
REMARK  104  A    between atoms: _259  and  _260
REMARK  105  A    between atoms: _259  and  _262
REMARK  106  A    between atoms: _262  and  _263
REMARK  107  A    between atoms: _266  and  _268
REMARK  108  A    between atoms: _268  and  _269
REMARK  109  A    between atoms: _268  and  _271
REMARK  110  A    between atoms: _271  and  _272
REMARK  111  A    between atoms: _272  and  _273
REMARK  112  A    between atoms: _273  and  _274
REMARK  113  A    between atoms: _283  and  _285
REMARK  114  A    between atoms: _285  and  _286
REMARK  115  A    between atoms: _285  and  _288
REMARK  116  A    between atoms: _288  and  _289
REMARK  117  A    between atoms: _292  and  _294
REMARK  118  A    between atoms: _294  and  _295
REMARK  119  A    between atoms: _294  and  _297
REMARK  120  A    between atoms: _297  and  _298
REMARK  121  A    between atoms: _298  and  _299
REMARK  122  A    between atoms: _299  and  _300
REMARK  123  A    between atoms: _300  and  _301
REMARK  124  A    between atoms: _305  and  _307
REMARK  125  A    between atoms: _307  and  _308
REMARK  126  A    between atoms: _307  and  _310
REMARK  127  A    between atoms: _310  and  _311
REMARK  128  A    between atoms: _314  and  _316
REMARK  129  A    between atoms: _316  and  _317
REMARK  130  A    between atoms: _316  and  _319
REMARK  131  A    between atoms: _319  and  _320
REMARK  132  A    between atoms: _320  and  _321
REMARK  133  A    between atoms: _326  and  _328
REMARK  134  A    between atoms: _328  and  _329
REMARK  135  A    between atoms: _328  and  _331
REMARK  136  A    between atoms: _331  and  _332
REMARK  137  A    between atoms: _335  and  _337
REMARK  138  A    between atoms: _337  and  _338
REMARK  139  A    between atoms: _337  and  _340
REMARK  140  A    between atoms: _340  and  _341
REMARK  141  A    between atoms: _346  and  _347
REMARK  142  A    between atoms: _349  and  _351
REMARK  143  A    between atoms: _351  and  _352
REMARK  144  A    between atoms: _351  and  _354
REMARK  145  A    between atoms: _354  and  _355
REMARK  146  A    between atoms: _358  and  _360
REMARK  147  A    between atoms: _360  and  _361
REMARK  148  A    between atoms: _360  and  _363
REMARK  149  A    between atoms: _365  and  _367
REMARK  150  A    between atoms: _367  and  _368
REMARK  151  A    between atoms: _371  and  _373
REMARK  152  A    between atoms: _373  and  _374
REMARK  153  A    between atoms: _373  and  _376
REMARK  154  A    between atoms: _376  and  _377
REMARK  155  A    between atoms: _377  and  _378
REMARK  156  A    between atoms: _378  and  _379
REMARK  157  A    between atoms: _379  and  _380
REMARK  158  A    between atoms: _384  and  _386
REMARK  159  A    between atoms: _386  and  _387
REMARK  160  A    between atoms: _386  and  _389
REMARK  161  A    between atoms: _389  and  _390
REMARK  162  A    between atoms: _393  and  _395
REMARK  163  A    between atoms: _395  and  _396
REMARK  164  A    between atoms: _399  and  _401
REMARK  165  A    between atoms: _401  and  _402
REMARK  166  A    between atoms: _401  and  _404
REMARK  167  A    between atoms: _404  and  _405
REMARK  168  A    between atoms: _405  and  _519
REMARK  169  A    between atoms: _406  and  _408
REMARK  170  A    between atoms: _408  and  _409
REMARK  171  A    between atoms: _408  and  _411
REMARK  172  A    between atoms: _411  and  _412
REMARK  173  A    between atoms: _412  and  _413
REMARK  174  A    between atoms: _413  and  _414
REMARK  175  A    between atoms: _414  and  _415
REMARK  176  A    between atoms: _419  and  _421
REMARK  177  A    between atoms: _421  and  _422
REMARK  178  A    between atoms: _424  and  _426
REMARK  179  A    between atoms: _426  and  _427
REMARK  180  A    between atoms: _426  and  _429
REMARK  181  A    between atoms: _429  and  _430
REMARK  182  A    between atoms: _433  and  _435
REMARK  183  A    between atoms: _435  and  _436
REMARK  184  A    between atoms: _435  and  _438
REMARK  185  A    between atoms: _438  and  _439
REMARK  186  A    between atoms: _441  and  _443
REMARK  187  A    between atoms: _443  and  _444
REMARK  188  A    between atoms: _446  and  _448
REMARK  189  A    between atoms: _448  and  _449
REMARK  190  A    between atoms: _451  and  _453
REMARK  191  A    between atoms: _453  and  _454
REMARK  192  A    between atoms: _453  and  _456
REMARK  193  A    between atoms: _456  and  _457
REMARK  194  A    between atoms: _460  and  _462
REMARK  195  A    between atoms: _462  and  _463
REMARK  196  A    between atoms: _462  and  _465
REMARK  197  A    between atoms: _465  and  _466
REMARK  198  A    between atoms: _469  and  _471
REMARK  199  A    between atoms: _471  and  _472
REMARK  200  A    between atoms: _471  and  _474
REMARK  201  A    between atoms: _474  and  _475
REMARK  202  A    between atoms: _477  and  _479
REMARK  203  A    between atoms: _479  and  _480
REMARK  204  A    between atoms: _479  and  _482
REMARK  205  A    between atoms: _482  and  _483
REMARK  206  A    between atoms: _493  and  _495
REMARK  207  A    between atoms: _495  and  _496
REMARK  208  A    between atoms: _498  and  _500
REMARK  209  A    between atoms: _500  and  _501
REMARK  210  A    between atoms: _500  and  _503
REMARK  211  A    between atoms: _503  and  _504
REMARK  212  A    between atoms: _504  and  _505
REMARK  213  A    between atoms: _508  and  _510
REMARK  214  A    between atoms: _510  and  _511
REMARK  215  A    between atoms: _513  and  _515
REMARK  216  A    between atoms: _515  and  _516
REMARK  217  A    between atoms: _515  and  _518
REMARK  218  A    between atoms: _518  and  _519
REMARK  219  A    between atoms: _520  and  _522
REMARK  220  A    between atoms: _522  and  _523
REMARK  221  A    between atoms: _526  and  _528
REMARK  222  A    between atoms: _528  and  _529
REMARK  223  A    between atoms: _528  and  _531
REMARK  224  A    between atoms: _531  and  _532
REMARK  225  A    between atoms: _532  and  _533
REMARK  226  A    between atoms: _538  and  _540
REMARK  227  A    between atoms: _540  and  _541
REMARK  228  A    between atoms: _540  and  _543
REMARK  229  A    between atoms: _543  and  _544
REMARK  230  A    between atoms: _544  and  _545
REMARK  231  A    between atoms: _545  and  _546
REMARK  232  A    between atoms: _556  and  _557
REMARK  233  A    between atoms: _562  and  _564
REMARK  234  A    between atoms: _564  and  _565
REMARK  235  A    between atoms: _567  and  _569
REMARK  236  A    between atoms: _569  and  _570
REMARK  237  A    between atoms: _569  and  _572
REMARK  238  A    between atoms: _575  and  _577
REMARK  239  A    between atoms: _577  and  _578
REMARK  240  A    between atoms: _577  and  _580
REMARK  241  A    between atoms: _580  and  _581
REMARK  242  A    between atoms: _586  and  _587
REMARK  243  A    between atoms: _589  and  _591
REMARK  244  A    between atoms: _591  and  _592
REMARK  245  A    between atoms: _591  and  _594
REMARK  246  A    between atoms: _594  and  _595
REMARK                            x       y       z     vdW  Elec       q    Type
REMARK                         _______ _______ _______ _____ _____    ______ ____
ROOT
ATOM      1  O   HOH     1      11.973   9.682  45.577  0.00  0.00    +0.000 OA
ENDROOT
TORSDOF 0
REMARK  Name = ../refined-set-2016/4crb/4crb_pocket.pdb
REMARK  246 active torsions:
REMARK  status: ('A' for Active; 'I' for Inactive)
REMARK    1  A    between atoms: _1  and  _5
REMARK    2  A    between atoms: _5  and  _6
REMARK    3  A    between atoms: _5  and  _8
REMARK    4  A    between atoms: _8  and  _9
REMARK    5  A    between atoms: _12  and  _14
REMARK    6  A    between atoms: _14  and  _15
REMARK    7  A    between atoms: _14  and  _17
REMARK    8  A    between atoms: _20  and  _22
REMARK    9  A    between atoms: _22  and  _23
REMARK   10  A    between atoms: _22  and  _25
REMARK   11  A    between atoms: _25  and  _26
REMARK   12  A    between atoms: _29  and  _31
REMARK   13  A    between atoms: _31  and  _32
REMARK   14  A    between atoms: _31  and  _34
REMARK   15  A    between atoms: _34  and  _35
REMARK   16  A    between atoms: _38  and  _40
REMARK   17  A    between atoms: _40  and  _41
REMARK   18  A    between atoms: _40  and  _43
REMARK   19  A    between atoms: _43  and  _44
REMARK   20  A    between atoms: _47  and  _49
REMARK   21  A    between atoms: _49  and  _50
REMARK   22  A    between atoms: _49  and  _52
REMARK   23  A    between atoms: _52  and  _53
REMARK   24  A    between atoms: _56  and  _58
REMARK   25  A    between atoms: _58  and  _59
REMARK   26  A    between atoms: _58  and  _61
REMARK   27  A    between atoms: _61  and  _62
REMARK   28  A    between atoms: _62  and  _63
REMARK   29  A    between atoms: _68  and  _70
REMARK   30  A    between atoms: _70  and  _71
REMARK   31  A    between atoms: _70  and  _73
REMARK   32  A    between atoms: _73  and  _74
REMARK   33  A    between atoms: _74  and  _75
REMARK   34  A    between atoms: _75  and  _76
REMARK   35  A    between atoms: _85  and  _87
REMARK   36  A    between atoms: _87  and  _88
REMARK   37  A    between atoms: _87  and  _90
REMARK   38  A    between atoms: _90  and  _91
REMARK   39  A    between atoms: _96  and  _98
REMARK   40  A    between atoms: _98  and  _99
REMARK   41  A    between atoms: _98  and  _101
REMARK   42  A    between atoms: _101  and  _102
REMARK   43  A    between atoms: _105  and  _107
REMARK   44  A    between atoms: _107  and  _108
REMARK   45  A    between atoms: _107  and  _110
REMARK   46  A    between atoms: _110  and  _111
REMARK   47  A    between atoms: _111  and  _146
REMARK   48  A    between atoms: _112  and  _114
REMARK   49  A    between atoms: _114  and  _115
REMARK   50  A    between atoms: _117  and  _119
REMARK   51  A    between atoms: _119  and  _120
REMARK   52  A    between atoms: _123  and  _125
REMARK   53  A    between atoms: _125  and  _126
REMARK   54  A    between atoms: _129  and  _131
REMARK   55  A    between atoms: _131  and  _132
REMARK   56  A    between atoms: _131  and  _134
REMARK   57  A    between atoms: _134  and  _135
REMARK   58  A    between atoms: _140  and  _142
REMARK   59  A    between atoms: _142  and  _143
REMARK   60  A    between atoms: _142  and  _145
REMARK   61  A    between atoms: _145  and  _146
REMARK   62  A    between atoms: _147  and  _149
REMARK   63  A    between atoms: _149  and  _150
REMARK   64  A    between atoms: _149  and  _152
REMARK   65  A    between atoms: _152  and  _153
REMARK   66  A    between atoms: _159  and  _161
REMARK   67  A    between atoms: _161  and  _162
REMARK   68  A    between atoms: _161  and  _164
REMARK   69  A    between atoms: _164  and  _165
REMARK   70  A    between atoms: _170  and  _171
REMARK   71  A    between atoms: _173  and  _175
REMARK   72  A    between atoms: _175  and  _176
REMARK   73  A    between atoms: _178  and  _180
REMARK   74  A    between atoms: _180  and  _181
REMARK   75  A    between atoms: _180  and  _183
REMARK   76  A    between atoms: _186  and  _188
REMARK   77  A    between atoms: _188  and  _189
REMARK   78  A    between atoms: _192  and  _194
REMARK   79  A    between atoms: _194  and  _195
REMARK   80  A    between atoms: _194  and  _197
REMARK   81  A    between atoms: _197  and  _198
REMARK   82  A    between atoms: _201  and  _203
REMARK   83  A    between atoms: _203  and  _204
REMARK   84  A    between atoms: _203  and  _206
REMARK   85  A    between atoms: _209  and  _211
REMARK   86  A    between atoms: _211  and  _212
REMARK   87  A    between atoms: _211  and  _214
REMARK   88  A    between atoms: _214  and  _215
REMARK   89  A    between atoms: _225  and  _227
REMARK   90  A    between atoms: _227  and  _228
REMARK   91  A    between atoms: _230  and  _232
REMARK   92  A    between atoms: _232  and  _233
REMARK   93  A    between atoms: _232  and  _235
REMARK   94  A    between atoms: _235  and  _236
REMARK   95  A    between atoms: _241  and  _242
REMARK   96  A    between atoms: _244  and  _246
REMARK   97  A    between atoms: _246  and  _247
REMARK   98  A    between atoms: _246  and  _249
REMARK   99  A    between atoms: _249  and  _250
REMARK  100  A    between atoms: _250  and  _251
REMARK  101  A    between atoms: _251  and  _252
REMARK  102  A    between atoms: _252  and  _253
REMARK  103  A    between atoms: _257  and  _259
REMARK  104  A    between atoms: _259  and  _260
REMARK  105  A    between atoms: _259  and  _262
REMARK  106  A    between atoms: _262  and  _263
REMARK  107  A    between atoms: _266  and  _268
REMARK  108  A    between atoms: _268  and  _269
REMARK  109  A    between atoms: _268  and  _271
REMARK  110  A    between atoms: _271  and  _272
REMARK  111  A    between atoms: _272  and  _273
REMARK  112  A    between atoms: _273  and  _274
REMARK  113  A    between atoms: _283  and  _285
REMARK  114  A    between atoms: _285  and  _286
REMARK  115  A    between atoms: _285  and  _288
REMARK  116  A    between atoms: _288  and  _289
REMARK  117  A    between atoms: _292  and  _294
REMARK  118  A    between atoms: _294  and  _295
REMARK  119  A    between atoms: _294  and  _297
REMARK  120  A    between atoms: _297  and  _298
REMARK  121  A    between atoms: _298  and  _299
REMARK  122  A    between atoms: _299  and  _300
REMARK  123  A    between atoms: _300  and  _301
REMARK  124  A    between atoms: _305  and  _307
REMARK  125  A    between atoms: _307  and  _308
REMARK  126  A    between atoms: _307  and  _310
REMARK  127  A    between atoms: _310  and  _311
REMARK  128  A    between atoms: _314  and  _316
REMARK  129  A    between atoms: _316  and  _317
REMARK  130  A    between atoms: _316  and  _319
REMARK  131  A    between atoms: _319  and  _320
REMARK  132  A    between atoms: _320  and  _321
REMARK  133  A    between atoms: _326  and  _328
REMARK  134  A    between atoms: _328  and  _329
REMARK  135  A    between atoms: _328  and  _331
REMARK  136  A    between atoms: _331  and  _332
REMARK  137  A    between atoms: _335  and  _337
REMARK  138  A    between atoms: _337  and  _338
REMARK  139  A    between atoms: _337  and  _340
REMARK  140  A    between atoms: _340  and  _341
REMARK  141  A    between atoms: _346  and  _347
REMARK  142  A    between atoms: _349  and  _351
REMARK  143  A    between atoms: _351  and  _352
REMARK  144  A    between atoms: _351  and  _354
REMARK  145  A    between atoms: _354  and  _355
REMARK  146  A    between atoms: _358  and  _360
REMARK  147  A    between atoms: _360  and  _361
REMARK  148  A    between atoms: _360  and  _363
REMARK  149  A    between atoms: _365  and  _367
REMARK  150  A    between atoms: _367  and  _368
REMARK  151  A    between atoms: _371  and  _373
REMARK  152  A    between atoms: _373  and  _374
REMARK  153  A    between atoms: _373  and  _376
REMARK  154  A    between atoms: _376  and  _377
REMARK  155  A    between atoms: _377  and  _378
REMARK  156  A    between atoms: _378  and  _379
REMARK  157  A    between atoms: _379  and  _380
REMARK  158  A    between atoms: _384  and  _386
REMARK  159  A    between atoms: _386  and  _387
REMARK  160  A    between atoms: _386  and  _389
REMARK  161  A    between atoms: _389  and  _390
REMARK  162  A    between atoms: _393  and  _395
REMARK  163  A    between atoms: _395  and  _396
REMARK  164  A    between atoms: _399  and  _401
REMARK  165  A    between atoms: _401  and  _402
REMARK  166  A    between atoms: _401  and  _404
REMARK  167  A    between atoms: _404  and  _405
REMARK  168  A    between atoms: _405  and  _519
REMARK  169  A    between atoms: _406  and  _408
REMARK  170  A    between atoms: _408  and  _409
REMARK  171  A    between atoms: _408  and  _411
REMARK  172  A    between atoms: _411  and  _412
REMARK  173  A    between atoms: _412  and  _413
REMARK  174  A    between atoms: _413  and  _414
REMARK  175  A    between atoms: _414  and  _415
REMARK  176  A    between atoms: _419  and  _421
REMARK  177  A    between atoms: _421  and  _422
REMARK  178  A    between atoms: _424  and  _426
REMARK  179  A    between atoms: _426  and  _427
REMARK  180  A    between atoms: _426  and  _429
REMARK  181  A    between atoms: _429  and  _430
REMARK  182  A    between atoms: _433  and  _435
REMARK  183  A    between atoms: _435  and  _436
REMARK  184  A    between atoms: _435  and  _438
REMARK  185  A    between atoms: _438  and  _439
REMARK  186  A    between atoms: _441  and  _443
REMARK  187  A    between atoms: _443  and  _444
REMARK  188  A    between atoms: _446  and  _448
REMARK  189  A    between atoms: _448  and  _449
REMARK  190  A    between atoms: _451  and  _453
REMARK  191  A    between atoms: _453  and  _454
REMARK  192  A    between atoms: _453  and  _456
REMARK  193  A    between atoms: _456  and  _457
REMARK  194  A    between atoms: _460  and  _462
REMARK  195  A    between atoms: _462  and  _463
REMARK  196  A    between atoms: _462  and  _465
REMARK  197  A    between atoms: _465  and  _466
REMARK  198  A    between atoms: _469  and  _471
REMARK  199  A    between atoms: _471  and  _472
REMARK  200  A    between atoms: _471  and  _474
REMARK  201  A    between atoms: _474  and  _475
REMARK  202  A    between atoms: _477  and  _479
REMARK  203  A    between atoms: _479  and  _480
REMARK  204  A    between atoms: _479  and  _482
REMARK  205  A    between atoms: _482  and  _483
REMARK  206  A    between atoms: _493  and  _495
REMARK  207  A    between atoms: _495  and  _496
REMARK  208  A    between atoms: _498  and  _500
REMARK  209  A    between atoms: _500  and  _501
REMARK  210  A    between atoms: _500  and  _503
REMARK  211  A    between atoms: _503  and  _504
REMARK  212  A    between atoms: _504  and  _505
REMARK  213  A    between atoms: _508  and  _510
REMARK  214  A    between atoms: _510  and  _511
REMARK  215  A    between atoms: _513  and  _515
REMARK  216  A    between atoms: _515  and  _516
REMARK  217  A    between atoms: _515  and  _518
REMARK  218  A    between atoms: _518  and  _519
REMARK  219  A    between atoms: _520  and  _522
REMARK  220  A    between atoms: _522  and  _523
REMARK  221  A    between atoms: _526  and  _528
REMARK  222  A    between atoms: _528  and  _529
REMARK  223  A    between atoms: _528  and  _531
REMARK  224  A    between atoms: _531  and  _532
REMARK  225  A    between atoms: _532  and  _533
REMARK  226  A    between atoms: _538  and  _540
REMARK  227  A    between atoms: _540  and  _541
REMARK  228  A    between atoms: _540  and  _543
REMARK  229  A    between atoms: _543  and  _544
REMARK  230  A    between atoms: _544  and  _545
REMARK  231  A    between atoms: _545  and  _546
REMARK  232  A    between atoms: _556  and  _557
REMARK  233  A    between atoms: _562  and  _564
REMARK  234  A    between atoms: _564  and  _565
REMARK  235  A    between atoms: _567  and  _569
REMARK  236  A    between atoms: _569  and  _570
REMARK  237  A    between atoms: _569  and  _572
REMARK  238  A    between atoms: _575  and  _577
REMARK  239  A    between atoms: _577  and  _578
REMARK  240  A    between atoms: _577  and  _580
REMARK  241  A    between atoms: _580  and  _581
REMARK  242  A    between atoms: _586  and  _587
REMARK  243  A    between atoms: _589  and  _591
REMARK  244  A    between atoms: _591  and  _592
REMARK  245  A    between atoms: _591  and  _594
REMARK  246  A    between atoms: _594  and  _595
REMARK                            x       y       z     vdW  Elec       q    Type
REMARK                         _______ _______ _______ _____ _____    ______ ____
ROOT
ATOM      1  O   HOH     1      27.305  10.179  58.782  0.00  0.00    +0.000 OA
ENDROOT
TORSDOF 0
REMARK  Name = ../refined-set-2016/4crb/4crb_pocket.pdb
REMARK  246 active torsions:
REMARK  status: ('A' for Active; 'I' for Inactive)
REMARK    1  A    between atoms: _1  and  _5
REMARK    2  A    between atoms: _5  and  _6
REMARK    3  A    between atoms: _5  and  _8
REMARK    4  A    between atoms: _8  and  _9
REMARK    5  A    between atoms: _12  and  _14
REMARK    6  A    between atoms: _14  and  _15
REMARK    7  A    between atoms: _14  and  _17
REMARK    8  A    between atoms: _20  and  _22
REMARK    9  A    between atoms: _22  and  _23
REMARK   10  A    between atoms: _22  and  _25
REMARK   11  A    between atoms: _25  and  _26
REMARK   12  A    between atoms: _29  and  _31
REMARK   13  A    between atoms: _31  and  _32
REMARK   14  A    between atoms: _31  and  _34
REMARK   15  A    between atoms: _34  and  _35
REMARK   16  A    between atoms: _38  and  _40
REMARK   17  A    between atoms: _40  and  _41
REMARK   18  A    between atoms: _40  and  _43
REMARK   19  A    between atoms: _43  and  _44
REMARK   20  A    between atoms: _47  and  _49
REMARK   21  A    between atoms: _49  and  _50
REMARK   22  A    between atoms: _49  and  _52
REMARK   23  A    between atoms: _52  and  _53
REMARK   24  A    between atoms: _56  and  _58
REMARK   25  A    between atoms: _58  and  _59
REMARK   26  A    between atoms: _58  and  _61
REMARK   27  A    between atoms: _61  and  _62
REMARK   28  A    between atoms: _62  and  _63
REMARK   29  A    between atoms: _68  and  _70
REMARK   30  A    between atoms: _70  and  _71
REMARK   31  A    between atoms: _70  and  _73
REMARK   32  A    between atoms: _73  and  _74
REMARK   33  A    between atoms: _74  and  _75
REMARK   34  A    between atoms: _75  and  _76
REMARK   35  A    between atoms: _85  and  _87
REMARK   36  A    between atoms: _87  and  _88
REMARK   37  A    between atoms: _87  and  _90
REMARK   38  A    between atoms: _90  and  _91
REMARK   39  A    between atoms: _96  and  _98
REMARK   40  A    between atoms: _98  and  _99
REMARK   41  A    between atoms: _98  and  _101
REMARK   42  A    between atoms: _101  and  _102
REMARK   43  A    between atoms: _105  and  _107
REMARK   44  A    between atoms: _107  and  _108
REMARK   45  A    between atoms: _107  and  _110
REMARK   46  A    between atoms: _110  and  _111
REMARK   47  A    between atoms: _111  and  _146
REMARK   48  A    between atoms: _112  and  _114
REMARK   49  A    between atoms: _114  and  _115
REMARK   50  A    between atoms: _117  and  _119
REMARK   51  A    between atoms: _119  and  _120
REMARK   52  A    between atoms: _123  and  _125
REMARK   53  A    between atoms: _125  and  _126
REMARK   54  A    between atoms: _129  and  _131
REMARK   55  A    between atoms: _131  and  _132
REMARK   56  A    between atoms: _131  and  _134
REMARK   57  A    between atoms: _134  and  _135
REMARK   58  A    between atoms: _140  and  _142
REMARK   59  A    between atoms: _142  and  _143
REMARK   60  A    between atoms: _142  and  _145
REMARK   61  A    between atoms: _145  and  _146
REMARK   62  A    between atoms: _147  and  _149
REMARK   63  A    between atoms: _149  and  _150
REMARK   64  A    between atoms: _149  and  _152
REMARK   65  A    between atoms: _152  and  _153
REMARK   66  A    between atoms: _159  and  _161
REMARK   67  A    between atoms: _161  and  _162
REMARK   68  A    between atoms: _161  and  _164
REMARK   69  A    between atoms: _164  and  _165
REMARK   70  A    between atoms: _170  and  _171
REMARK   71  A    between atoms: _173  and  _175
REMARK   72  A    between atoms: _175  and  _176
REMARK   73  A    between atoms: _178  and  _180
REMARK   74  A    between atoms: _180  and  _181
REMARK   75  A    between atoms: _180  and  _183
REMARK   76  A    between atoms: _186  and  _188
REMARK   77  A    between atoms: _188  and  _189
REMARK   78  A    between atoms: _192  and  _194
REMARK   79  A    between atoms: _194  and  _195
REMARK   80  A    between atoms: _194  and  _197
REMARK   81  A    between atoms: _197  and  _198
REMARK   82  A    between atoms: _201  and  _203
REMARK   83  A    between atoms: _203  and  _204
REMARK   84  A    between atoms: _203  and  _206
REMARK   85  A    between atoms: _209  and  _211
REMARK   86  A    between atoms: _211  and  _212
REMARK   87  A    between atoms: _211  and  _214
REMARK   88  A    between atoms: _214  and  _215
REMARK   89  A    between atoms: _225  and  _227
REMARK   90  A    between atoms: _227  and  _228
REMARK   91  A    between atoms: _230  and  _232
REMARK   92  A    between atoms: _232  and  _233
REMARK   93  A    between atoms: _232  and  _235
REMARK   94  A    between atoms: _235  and  _236
REMARK   95  A    between atoms: _241  and  _242
REMARK   96  A    between atoms: _244  and  _246
REMARK   97  A    between atoms: _246  and  _247
REMARK   98  A    between atoms: _246  and  _249
REMARK   99  A    between atoms: _249  and  _250
REMARK  100  A    between atoms: _250  and  _251
REMARK  101  A    between atoms: _251  and  _252
REMARK  102  A    between atoms: _252  and  _253
REMARK  103  A    between atoms: _257  and  _259
REMARK  104  A    between atoms: _259  and  _260
REMARK  105  A    between atoms: _259  and  _262
REMARK  106  A    between atoms: _262  and  _263
REMARK  107  A    between atoms: _266  and  _268
REMARK  108  A    between atoms: _268  and  _269
REMARK  109  A    between atoms: _268  and  _271
REMARK  110  A    between atoms: _271  and  _272
REMARK  111  A    between atoms: _272  and  _273
REMARK  112  A    between atoms: _273  and  _274
REMARK  113  A    between atoms: _283  and  _285
REMARK  114  A    between atoms: _285  and  _286
REMARK  115  A    between atoms: _285  and  _288
REMARK  116  A    between atoms: _288  and  _289
REMARK  117  A    between atoms: _292  and  _294
REMARK  118  A    between atoms: _294  and  _295
REMARK  119  A    between atoms: _294  and  _297
REMARK  120  A    between atoms: _297  and  _298
REMARK  121  A    between atoms: _298  and  _299
REMARK  122  A    between atoms: _299  and  _300
REMARK  123  A    between atoms: _300  and  _301
REMARK  124  A    between atoms: _305  and  _307
REMARK  125  A    between atoms: _307  and  _308
REMARK  126  A    between atoms: _307  and  _310
REMARK  127  A    between atoms: _310  and  _311
REMARK  128  A    between atoms: _314  and  _316
REMARK  129  A    between atoms: _316  and  _317
REMARK  130  A    between atoms: _316  and  _319
REMARK  131  A    between atoms: _319  and  _320
REMARK  132  A    between atoms: _320  and  _321
REMARK  133  A    between atoms: _326  and  _328
REMARK  134  A    between atoms: _328  and  _329
REMARK  135  A    between atoms: _328  and  _331
REMARK  136  A    between atoms: _331  and  _332
REMARK  137  A    between atoms: _335  and  _337
REMARK  138  A    between atoms: _337  and  _338
REMARK  139  A    between atoms: _337  and  _340
REMARK  140  A    between atoms: _340  and  _341
REMARK  141  A    between atoms: _346  and  _347
REMARK  142  A    between atoms: _349  and  _351
REMARK  143  A    between atoms: _351  and  _352
REMARK  144  A    between atoms: _351  and  _354
REMARK  145  A    between atoms: _354  and  _355
REMARK  146  A    between atoms: _358  and  _360
REMARK  147  A    between atoms: _360  and  _361
REMARK  148  A    between atoms: _360  and  _363
REMARK  149  A    between atoms: _365  and  _367
REMARK  150  A    between atoms: _367  and  _368
REMARK  151  A    between atoms: _371  and  _373
REMARK  152  A    between atoms: _373  and  _374
REMARK  153  A    between atoms: _373  and  _376
REMARK  154  A    between atoms: _376  and  _377
REMARK  155  A    between atoms: _377  and  _378
REMARK  156  A    between atoms: _378  and  _379
REMARK  157  A    between atoms: _379  and  _380
REMARK  158  A    between atoms: _384  and  _386
REMARK  159  A    between atoms: _386  and  _387
REMARK  160  A    between atoms: _386  and  _389
REMARK  161  A    between atoms: _389  and  _390
REMARK  162  A    between atoms: _393  and  _395
REMARK  163  A    between atoms: _395  and  _396
REMARK  164  A    between atoms: _399  and  _401
REMARK  165  A    between atoms: _401  and  _402
REMARK  166  A    between atoms: _401  and  _404
REMARK  167  A    between atoms: _404  and  _405
REMARK  168  A    between atoms: _405  and  _519
REMARK  169  A    between atoms: _406  and  _408
REMARK  170  A    between atoms: _408  and  _409
REMARK  171  A    between atoms: _408  and  _411
REMARK  172  A    between atoms: _411  and  _412
REMARK  173  A    between atoms: _412  and  _413
REMARK  174  A    between atoms: _413  and  _414
REMARK  175  A    between atoms: _414  and  _415
REMARK  176  A    between atoms: _419  and  _421
REMARK  177  A    between atoms: _421  and  _422
REMARK  178  A    between atoms: _424  and  _426
REMARK  179  A    between atoms: _426  and  _427
REMARK  180  A    between atoms: _426  and  _429
REMARK  181  A    between atoms: _429  and  _430
REMARK  182  A    between atoms: _433  and  _435
REMARK  183  A    between atoms: _435  and  _436
REMARK  184  A    between atoms: _435  and  _438
REMARK  185  A    between atoms: _438  and  _439
REMARK  186  A    between atoms: _441  and  _443
REMARK  187  A    between atoms: _443  and  _444
REMARK  188  A    between atoms: _446  and  _448
REMARK  189  A    between atoms: _448  and  _449
REMARK  190  A    between atoms: _451  and  _453
REMARK  191  A    between atoms: _453  and  _454
REMARK  192  A    between atoms: _453  and  _456
REMARK  193  A    between atoms: _456  and  _457
REMARK  194  A    between atoms: _460  and  _462
REMARK  195  A    between atoms: _462  and  _463
REMARK  196  A    between atoms: _462  and  _465
REMARK  197  A    between atoms: _465  and  _466
REMARK  198  A    between atoms: _469  and  _471
REMARK  199  A    between atoms: _471  and  _472
REMARK  200  A    between atoms: _471  and  _474
REMARK  201  A    between atoms: _474  and  _475
REMARK  202  A    between atoms: _477  and  _479
REMARK  203  A    between atoms: _479  and  _480
REMARK  204  A    between atoms: _479  and  _482
REMARK  205  A    between atoms: _482  and  _483
REMARK  206  A    between atoms: _493  and  _495
REMARK  207  A    between atoms: _495  and  _496
REMARK  208  A    between atoms: _498  and  _500
REMARK  209  A    between atoms: _500  and  _501
REMARK  210  A    between atoms: _500  and  _503
REMARK  211  A    between atoms: _503  and  _504
REMARK  212  A    between atoms: _504  and  _505
REMARK  213  A    between atoms: _508  and  _510
REMARK  214  A    between atoms: _510  and  _511
REMARK  215  A    between atoms: _513  and  _515
REMARK  216  A    between atoms: _515  and  _516
REMARK  217  A    between atoms: _515  and  _518
REMARK  218  A    between atoms: _518  and  _519
REMARK  219  A    between atoms: _520  and  _522
REMARK  220  A    between atoms: _522  and  _523
REMARK  221  A    between atoms: _526  and  _528
REMARK  222  A    between atoms: _528  and  _529
REMARK  223  A    between atoms: _528  and  _531
REMARK  224  A    between atoms: _531  and  _532
REMARK  225  A    between atoms: _532  and  _533
REMARK  226  A    between atoms: _538  and  _540
REMARK  227  A    between atoms: _540  and  _541
REMARK  228  A    between atoms: _540  and  _543
REMARK  229  A    between atoms: _543  and  _544
REMARK  230  A    between atoms: _544  and  _545
REMARK  231  A    between atoms: _545  and  _546
REMARK  232  A    between atoms: _556  and  _557
REMARK  233  A    between atoms: _562  and  _564
REMARK  234  A    between atoms: _564  and  _565
REMARK  235  A    between atoms: _567  and  _569
REMARK  236  A    between atoms: _569  and  _570
REMARK  237  A    between atoms: _569  and  _572
REMARK  238  A    between atoms: _575  and  _577
REMARK  239  A    between atoms: _577  and  _578
REMARK  240  A    between atoms: _577  and  _580
REMARK  241  A    between atoms: _580  and  _581
REMARK  242  A    between atoms: _586  and  _587
REMARK  243  A    between atoms: _589  and  _591
REMARK  244  A    between atoms: _591  and  _592
REMARK  245  A    between atoms: _591  and  _594
REMARK  246  A    between atoms: _594  and  _595
REMARK                            x       y       z     vdW  Elec       q    Type
REMARK                         _______ _______ _______ _____ _____    ______ ____
ROOT
ATOM      1  O   HOH     1      31.542  10.872  62.249  0.00  0.00    +0.000 OA
ENDROOT
TORSDOF 0
REMARK  Name = ../refined-set-2016/4crb/4crb_pocket.pdb
REMARK  246 active torsions:
REMARK  status: ('A' for Active; 'I' for Inactive)
REMARK    1  A    between atoms: _1  and  _5
REMARK    2  A    between atoms: _5  and  _6
REMARK    3  A    between atoms: _5  and  _8
REMARK    4  A    between atoms: _8  and  _9
REMARK    5  A    between atoms: _12  and  _14
REMARK    6  A    between atoms: _14  and  _15
REMARK    7  A    between atoms: _14  and  _17
REMARK    8  A    between atoms: _20  and  _22
REMARK    9  A    between atoms: _22  and  _23
REMARK   10  A    between atoms: _22  and  _25
REMARK   11  A    between atoms: _25  and  _26
REMARK   12  A    between atoms: _29  and  _31
REMARK   13  A    between atoms: _31  and  _32
REMARK   14  A    between atoms: _31  and  _34
REMARK   15  A    between atoms: _34  and  _35
REMARK   16  A    between atoms: _38  and  _40
REMARK   17  A    between atoms: _40  and  _41
REMARK   18  A    between atoms: _40  and  _43
REMARK   19  A    between atoms: _43  and  _44
REMARK   20  A    between atoms: _47  and  _49
REMARK   21  A    between atoms: _49  and  _50
REMARK   22  A    between atoms: _49  and  _52
REMARK   23  A    between atoms: _52  and  _53
REMARK   24  A    between atoms: _56  and  _58
REMARK   25  A    between atoms: _58  and  _59
REMARK   26  A    between atoms: _58  and  _61
REMARK   27  A    between atoms: _61  and  _62
REMARK   28  A    between atoms: _62  and  _63
REMARK   29  A    between atoms: _68  and  _70
REMARK   30  A    between atoms: _70  and  _71
REMARK   31  A    between atoms: _70  and  _73
REMARK   32  A    between atoms: _73  and  _74
REMARK   33  A    between atoms: _74  and  _75
REMARK   34  A    between atoms: _75  and  _76
REMARK   35  A    between atoms: _85  and  _87
REMARK   36  A    between atoms: _87  and  _88
REMARK   37  A    between atoms: _87  and  _90
REMARK   38  A    between atoms: _90  and  _91
REMARK   39  A    between atoms: _96  and  _98
REMARK   40  A    between atoms: _98  and  _99
REMARK   41  A    between atoms: _98  and  _101
REMARK   42  A    between atoms: _101  and  _102
REMARK   43  A    between atoms: _105  and  _107
REMARK   44  A    between atoms: _107  and  _108
REMARK   45  A    between atoms: _107  and  _110
REMARK   46  A    between atoms: _110  and  _111
REMARK   47  A    between atoms: _111  and  _146
REMARK   48  A    between atoms: _112  and  _114
REMARK   49  A    between atoms: _114  and  _115
REMARK   50  A    between atoms: _117  and  _119
REMARK   51  A    between atoms: _119  and  _120
REMARK   52  A    between atoms: _123  and  _125
REMARK   53  A    between atoms: _125  and  _126
REMARK   54  A    between atoms: _129  and  _131
REMARK   55  A    between atoms: _131  and  _132
REMARK   56  A    between atoms: _131  and  _134
REMARK   57  A    between atoms: _134  and  _135
REMARK   58  A    between atoms: _140  and  _142
REMARK   59  A    between atoms: _142  and  _143
REMARK   60  A    between atoms: _142  and  _145
REMARK   61  A    between atoms: _145  and  _146
REMARK   62  A    between atoms: _147  and  _149
REMARK   63  A    between atoms: _149  and  _150
REMARK   64  A    between atoms: _149  and  _152
REMARK   65  A    between atoms: _152  and  _153
REMARK   66  A    between atoms: _159  and  _161
REMARK   67  A    between atoms: _161  and  _162
REMARK   68  A    between atoms: _161  and  _164
REMARK   69  A    between atoms: _164  and  _165
REMARK   70  A    between atoms: _170  and  _171
REMARK   71  A    between atoms: _173  and  _175
REMARK   72  A    between atoms: _175  and  _176
REMARK   73  A    between atoms: _178  and  _180
REMARK   74  A    between atoms: _180  and  _181
REMARK   75  A    between atoms: _180  and  _183
REMARK   76  A    between atoms: _186  and  _188
REMARK   77  A    between atoms: _188  and  _189
REMARK   78  A    between atoms: _192  and  _194
REMARK   79  A    between atoms: _194  and  _195
REMARK   80  A    between atoms: _194  and  _197
REMARK   81  A    between atoms: _197  and  _198
REMARK   82  A    between atoms: _201  and  _203
REMARK   83  A    between atoms: _203  and  _204
REMARK   84  A    between atoms: _203  and  _206
REMARK   85  A    between atoms: _209  and  _211
REMARK   86  A    between atoms: _211  and  _212
REMARK   87  A    between atoms: _211  and  _214
REMARK   88  A    between atoms: _214  and  _215
REMARK   89  A    between atoms: _225  and  _227
REMARK   90  A    between atoms: _227  and  _228
REMARK   91  A    between atoms: _230  and  _232
REMARK   92  A    between atoms: _232  and  _233
REMARK   93  A    between atoms: _232  and  _235
REMARK   94  A    between atoms: _235  and  _236
REMARK   95  A    between atoms: _241  and  _242
REMARK   96  A    between atoms: _244  and  _246
REMARK   97  A    between atoms: _246  and  _247
REMARK   98  A    between atoms: _246  and  _249
REMARK   99  A    between atoms: _249  and  _250
REMARK  100  A    between atoms: _250  and  _251
REMARK  101  A    between atoms: _251  and  _252
REMARK  102  A    between atoms: _252  and  _253
REMARK  103  A    between atoms: _257  and  _259
REMARK  104  A    between atoms: _259  and  _260
REMARK  105  A    between atoms: _259  and  _262
REMARK  106  A    between atoms: _262  and  _263
REMARK  107  A    between atoms: _266  and  _268
REMARK  108  A    between atoms: _268  and  _269
REMARK  109  A    between atoms: _268  and  _271
REMARK  110  A    between atoms: _271  and  _272
REMARK  111  A    between atoms: _272  and  _273
REMARK  112  A    between atoms: _273  and  _274
REMARK  113  A    between atoms: _283  and  _285
REMARK  114  A    between atoms: _285  and  _286
REMARK  115  A    between atoms: _285  and  _288
REMARK  116  A    between atoms: _288  and  _289
REMARK  117  A    between atoms: _292  and  _294
REMARK  118  A    between atoms: _294  and  _295
REMARK  119  A    between atoms: _294  and  _297
REMARK  120  A    between atoms: _297  and  _298
REMARK  121  A    between atoms: _298  and  _299
REMARK  122  A    between atoms: _299  and  _300
REMARK  123  A    between atoms: _300  and  _301
REMARK  124  A    between atoms: _305  and  _307
REMARK  125  A    between atoms: _307  and  _308
REMARK  126  A    between atoms: _307  and  _310
REMARK  127  A    between atoms: _310  and  _311
REMARK  128  A    between atoms: _314  and  _316
REMARK  129  A    between atoms: _316  and  _317
REMARK  130  A    between atoms: _316  and  _319
REMARK  131  A    between atoms: _319  and  _320
REMARK  132  A    between atoms: _320  and  _321
REMARK  133  A    between atoms: _326  and  _328
REMARK  134  A    between atoms: _328  and  _329
REMARK  135  A    between atoms: _328  and  _331
REMARK  136  A    between atoms: _331  and  _332
REMARK  137  A    between atoms: _335  and  _337
REMARK  138  A    between atoms: _337  and  _338
REMARK  139  A    between atoms: _337  and  _340
REMARK  140  A    between atoms: _340  and  _341
REMARK  141  A    between atoms: _346  and  _347
REMARK  142  A    between atoms: _349  and  _351
REMARK  143  A    between atoms: _351  and  _352
REMARK  144  A    between atoms: _351  and  _354
REMARK  145  A    between atoms: _354  and  _355
REMARK  146  A    between atoms: _358  and  _360
REMARK  147  A    between atoms: _360  and  _361
REMARK  148  A    between atoms: _360  and  _363
REMARK  149  A    between atoms: _365  and  _367
REMARK  150  A    between atoms: _367  and  _368
REMARK  151  A    between atoms: _371  and  _373
REMARK  152  A    between atoms: _373  and  _374
REMARK  153  A    between atoms: _373  and  _376
REMARK  154  A    between atoms: _376  and  _377
REMARK  155  A    between atoms: _377  and  _378
REMARK  156  A    between atoms: _378  and  _379
REMARK  157  A    between atoms: _379  and  _380
REMARK  158  A    between atoms: _384  and  _386
REMARK  159  A    between atoms: _386  and  _387
REMARK  160  A    between atoms: _386  and  _389
REMARK  161  A    between atoms: _389  and  _390
REMARK  162  A    between atoms: _393  and  _395
REMARK  163  A    between atoms: _395  and  _396
REMARK  164  A    between atoms: _399  and  _401
REMARK  165  A    between atoms: _401  and  _402
REMARK  166  A    between atoms: _401  and  _404
REMARK  167  A    between atoms: _404  and  _405
REMARK  168  A    between atoms: _405  and  _519
REMARK  169  A    between atoms: _406  and  _408
REMARK  170  A    between atoms: _408  and  _409
REMARK  171  A    between atoms: _408  and  _411
REMARK  172  A    between atoms: _411  and  _412
REMARK  173  A    between atoms: _412  and  _413
REMARK  174  A    between atoms: _413  and  _414
REMARK  175  A    between atoms: _414  and  _415
REMARK  176  A    between atoms: _419  and  _421
REMARK  177  A    between atoms: _421  and  _422
REMARK  178  A    between atoms: _424  and  _426
REMARK  179  A    between atoms: _426  and  _427
REMARK  180  A    between atoms: _426  and  _429
REMARK  181  A    between atoms: _429  and  _430
REMARK  182  A    between atoms: _433  and  _435
REMARK  183  A    between atoms: _435  and  _436
REMARK  184  A    between atoms: _435  and  _438
REMARK  185  A    between atoms: _438  and  _439
REMARK  186  A    between atoms: _441  and  _443
REMARK  187  A    between atoms: _443  and  _444
REMARK  188  A    between atoms: _446  and  _448
REMARK  189  A    between atoms: _448  and  _449
REMARK  190  A    between atoms: _451  and  _453
REMARK  191  A    between atoms: _453  and  _454
REMARK  192  A    between atoms: _453  and  _456
REMARK  193  A    between atoms: _456  and  _457
REMARK  194  A    between atoms: _460  and  _462
REMARK  195  A    between atoms: _462  and  _463
REMARK  196  A    between atoms: _462  and  _465
REMARK  197  A    between atoms: _465  and  _466
REMARK  198  A    between atoms: _469  and  _471
REMARK  199  A    between atoms: _471  and  _472
REMARK  200  A    between atoms: _471  and  _474
REMARK  201  A    between atoms: _474  and  _475
REMARK  202  A    between atoms: _477  and  _479
REMARK  203  A    between atoms: _479  and  _480
REMARK  204  A    between atoms: _479  and  _482
REMARK  205  A    between atoms: _482  and  _483
REMARK  206  A    between atoms: _493  and  _495
REMARK  207  A    between atoms: _495  and  _496
REMARK  208  A    between atoms: _498  and  _500
REMARK  209  A    between atoms: _500  and  _501
REMARK  210  A    between atoms: _500  and  _503
REMARK  211  A    between atoms: _503  and  _504
REMARK  212  A    between atoms: _504  and  _505
REMARK  213  A    between atoms: _508  and  _510
REMARK  214  A    between atoms: _510  and  _511
REMARK  215  A    between atoms: _513  and  _515
REMARK  216  A    between atoms: _515  and  _516
REMARK  217  A    between atoms: _515  and  _518
REMARK  218  A    between atoms: _518  and  _519
REMARK  219  A    between atoms: _520  and  _522
REMARK  220  A    between atoms: _522  and  _523
REMARK  221  A    between atoms: _526  and  _528
REMARK  222  A    between atoms: _528  and  _529
REMARK  223  A    between atoms: _528  and  _531
REMARK  224  A    between atoms: _531  and  _532
REMARK  225  A    between atoms: _532  and  _533
REMARK  226  A    between atoms: _538  and  _540
REMARK  227  A    between atoms: _540  and  _541
REMARK  228  A    between atoms: _540  and  _543
REMARK  229  A    between atoms: _543  and  _544
REMARK  230  A    between atoms: _544  and  _545
REMARK  231  A    between atoms: _545  and  _546
REMARK  232  A    between atoms: _556  and  _557
REMARK  233  A    between atoms: _562  and  _564
REMARK  234  A    between atoms: _564  and  _565
REMARK  235  A    between atoms: _567  and  _569
REMARK  236  A    between atoms: _569  and  _570
REMARK  237  A    between atoms: _569  and  _572
REMARK  238  A    between atoms: _575  and  _577
REMARK  239  A    between atoms: _577  and  _578
REMARK  240  A    between atoms: _577  and  _580
REMARK  241  A    between atoms: _580  and  _581
REMARK  242  A    between atoms: _586  and  _587
REMARK  243  A    between atoms: _589  and  _591
REMARK  244  A    between atoms: _591  and  _592
REMARK  245  A    between atoms: _591  and  _594
REMARK  246  A    between atoms: _594  and  _595
REMARK                            x       y       z     vdW  Elec       q    Type
REMARK                         _______ _______ _______ _____ _____    ______ ____
ROOT
ATOM      1  O   HOH     1      25.059   9.642  58.779  0.00  0.00    +0.000 OA
ENDROOT
TORSDOF 0
