REMARK  Name = ../refined-set-2016/3arr/3arr_pocket.pdb
REMARK  141 active torsions:
REMARK  status: ('A' for Active; 'I' for Inactive)
REMARK    1  A    between atoms: _1  and  _3
REMARK    2  A    between atoms: _3  and  _4
REMARK    3  A    between atoms: _3  and  _6
REMARK    4  A    between atoms: _6  and  _7
REMARK    5  A    between atoms: _17  and  _19
REMARK    6  A    between atoms: _19  and  _20
REMARK    7  A    between atoms: _19  and  _22
REMARK    8  A    between atoms: _22  and  _23
REMARK    9  A    between atoms: _26  and  _28
REMARK   10  A    between atoms: _28  and  _29
REMARK   11  A    between atoms: _28  and  _31
REMARK   12  A    between atoms: _31  and  _32
REMARK   13  A    between atoms: _32  and  _33
REMARK   14  A    between atoms: _36  and  _38
REMARK   15  A    between atoms: _38  and  _39
REMARK   16  A    between atoms: _38  and  _41
REMARK   17  A    between atoms: _41  and  _42
REMARK   18  A    between atoms: _48  and  _50
REMARK   19  A    between atoms: _50  and  _51
REMARK   20  A    between atoms: _53  and  _55
REMARK   21  A    between atoms: _55  and  _56
REMARK   22  A    between atoms: _58  and  _60
REMARK   23  A    between atoms: _60  and  _61
REMARK   24  A    between atoms: _63  and  _65
REMARK   25  A    between atoms: _65  and  _66
REMARK   26  A    between atoms: _69  and  _71
REMARK   27  A    between atoms: _71  and  _72
REMARK   28  A    between atoms: _71  and  _74
REMARK   29  A    between atoms: _74  and  _75
REMARK   30  A    between atoms: _78  and  _80
REMARK   31  A    between atoms: _80  and  _81
REMARK   32  A    between atoms: _83  and  _85
REMARK   33  A    between atoms: _85  and  _86
REMARK   34  A    between atoms: _85  and  _88
REMARK   35  A    between atoms: _91  and  _93
REMARK   36  A    between atoms: _93  and  _94
REMARK   37  A    between atoms: _96  and  _98
REMARK   38  A    between atoms: _98  and  _99
REMARK   39  A    between atoms: _98  and  _101
REMARK   40  A    between atoms: _101  and  _102
REMARK   41  A    between atoms: _107  and  _108
REMARK   42  A    between atoms: _110  and  _112
REMARK   43  A    between atoms: _112  and  _113
REMARK   44  A    between atoms: _112  and  _115
REMARK   45  A    between atoms: _115  and  _116
REMARK   46  A    between atoms: _119  and  _121
REMARK   47  A    between atoms: _121  and  _122
REMARK   48  A    between atoms: _121  and  _124
REMARK   49  A    between atoms: _124  and  _125
REMARK   50  A    between atoms: _125  and  _126
REMARK   51  A    between atoms: _126  and  _127
REMARK   52  A    between atoms: _127  and  _128
REMARK   53  A    between atoms: _132  and  _134
REMARK   54  A    between atoms: _134  and  _135
REMARK   55  A    between atoms: _134  and  _137
REMARK   56  A    between atoms: _137  and  _138
REMARK   57  A    between atoms: _141  and  _143
REMARK   58  A    between atoms: _143  and  _144
REMARK   59  A    between atoms: _143  and  _146
REMARK   60  A    between atoms: _146  and  _147
REMARK   61  A    between atoms: _147  and  _148
REMARK   62  A    between atoms: _150  and  _152
REMARK   63  A    between atoms: _152  and  _153
REMARK   64  A    between atoms: _152  and  _155
REMARK   65  A    between atoms: _155  and  _156
REMARK   66  A    between atoms: _159  and  _161
REMARK   67  A    between atoms: _161  and  _162
REMARK   68  A    between atoms: _161  and  _164
REMARK   69  A    between atoms: _164  and  _165
REMARK   70  A    between atoms: _170  and  _171
REMARK   71  A    between atoms: _173  and  _175
REMARK   72  A    between atoms: _175  and  _176
REMARK   73  A    between atoms: _175  and  _178
REMARK   74  A    between atoms: _178  and  _179
REMARK   75  A    between atoms: _182  and  _184
REMARK   76  A    between atoms: _184  and  _185
REMARK   77  A    between atoms: _184  and  _187
REMARK   78  A    between atoms: _187  and  _188
REMARK   79  A    between atoms: _194  and  _196
REMARK   80  A    between atoms: _196  and  _197
REMARK   81  A    between atoms: _196  and  _199
REMARK   82  A    between atoms: _199  and  _200
REMARK   83  A    between atoms: _205  and  _206
REMARK   84  A    between atoms: _208  and  _210
REMARK   85  A    between atoms: _210  and  _211
REMARK   86  A    between atoms: _213  and  _215
REMARK   87  A    between atoms: _215  and  _216
REMARK   88  A    between atoms: _218  and  _220
REMARK   89  A    between atoms: _220  and  _221
REMARK   90  A    between atoms: _220  and  _223
REMARK   91  A    between atoms: _223  and  _224
REMARK   92  A    between atoms: _234  and  _236
REMARK   93  A    between atoms: _236  and  _237
REMARK   94  A    between atoms: _236  and  _239
REMARK   95  A    between atoms: _239  and  _240
REMARK   96  A    between atoms: _245  and  _247
REMARK   97  A    between atoms: _247  and  _248
REMARK   98  A    between atoms: _247  and  _250
REMARK   99  A    between atoms: _250  and  _251
REMARK  100  A    between atoms: _251  and  _252
REMARK  101  A    between atoms: _257  and  _259
REMARK  102  A    between atoms: _259  and  _260
REMARK  103  A    between atoms: _263  and  _265
REMARK  104  A    between atoms: _265  and  _266
REMARK  105  A    between atoms: _265  and  _268
REMARK  106  A    between atoms: _268  and  _269
REMARK  107  A    between atoms: _274  and  _275
REMARK  108  A    between atoms: _277  and  _279
REMARK  109  A    between atoms: _279  and  _280
REMARK  110  A    between atoms: _279  and  _282
REMARK  111  A    between atoms: _282  and  _283
REMARK  112  A    between atoms: _286  and  _288
REMARK  113  A    between atoms: _288  and  _289
REMARK  114  A    between atoms: _288  and  _291
REMARK  115  A    between atoms: _291  and  _292
REMARK  116  A    between atoms: _297  and  _298
REMARK  117  A    between atoms: _300  and  _302
REMARK  118  A    between atoms: _302  and  _303
REMARK  119  A    between atoms: _302  and  _305
REMARK  120  A    between atoms: _305  and  _306
REMARK  121  A    between atoms: _306  and  _307
REMARK  122  A    between atoms: _307  and  _308
REMARK  123  A    between atoms: _317  and  _319
REMARK  124  A    between atoms: _319  and  _320
REMARK  125  A    between atoms: _319  and  _322
REMARK  126  A    between atoms: _322  and  _323
REMARK  127  A    between atoms: _323  and  _324
REMARK  128  A    between atoms: _324  and  _325
REMARK  129  A    between atoms: _325  and  _326
REMARK  130  A    between atoms: _330  and  _332
REMARK  131  A    between atoms: _332  and  _333
REMARK  132  A    between atoms: _332  and  _335
REMARK  133  A    between atoms: _335  and  _336
REMARK  134  A    between atoms: _336  and  _337
REMARK  135  A    between atoms: _340  and  _342
REMARK  136  A    between atoms: _342  and  _343
REMARK  137  A    between atoms: _342  and  _345
REMARK  138  A    between atoms: _348  and  _350
REMARK  139  A    between atoms: _350  and  _351
REMARK  140  A    between atoms: _350  and  _353
REMARK  141  A    between atoms: _353  and  _354
REMARK                            x       y       z     vdW  Elec       q    Type
REMARK                         _______ _______ _______ _____ _____    ______ ____
ROOT
ATOM      1  CA  TRP A   1      -0.209 -15.215   7.331  0.00  0.00    +0.149 C 
ENDROOT
BRANCH   1   2
ATOM      2  C   TRP A   1      -0.713 -16.462   8.105  0.00  0.00    +0.239 C 
ATOM      3  O   TRP A   1      -1.873 -16.425   8.582  0.00  0.00    -0.274 OA
ATOM      4  N   THR A   2       0.106 -17.555   8.170  0.00  0.00    -0.296 N 
ATOM      5  H   THR A   2       1.106 -17.502   7.889  0.00  0.00    +0.150 HD
BRANCH   4   6
ATOM      6  CA  THR A   2      -0.483 -18.795   8.650  0.00  0.00    +0.164 C 
BRANCH   6   7
ATOM      7  C   THR A   2      -0.135 -18.970  10.154  0.00  0.00    +0.229 C 
ATOM      8  O   THR A   2      -0.614 -19.915  10.764  0.00  0.00    -0.286 OA
ENDBRANCH   6   7
BRANCH   6   9
ATOM      9  CB  THR A   2       0.104 -20.054   7.954  0.00  0.00    +0.136 C 
ATOM     10  CG2 THR A   2      -0.154 -19.807   6.448  0.00  0.00    +0.034 C 
BRANCH   9  11
ATOM     11  OG1 THR A   2       1.507 -20.053   8.090  0.00  0.00    -0.382 OA
ATOM     12  HG1 THR A   2       1.878 -19.238   7.668  0.00  0.00    +0.210 HD
ENDBRANCH   9  11
ENDBRANCH   6   9
ENDBRANCH   4   6
ENDBRANCH   1   2
BRANCH   1  13
ATOM     13  N   TRP A   1       1.180 -14.954   7.622  0.00  0.00    -0.238 NA
ATOM     14  H   TRP A   1       1.874 -14.952   6.848  0.00  0.00    +0.142 HD
ENDBRANCH   1  13
BRANCH   1  15
ATOM     15  CB  TRP A   1      -0.354 -15.442   5.797  0.00  0.00    +0.054 C 
BRANCH  15  16
ATOM     16  CG  TRP A   1      -1.759 -15.751   5.362  0.00  0.00    -0.002 A 
ATOM     17  CD2 TRP A   1      -2.797 -14.825   5.153  0.00  0.00    +0.013 A 
ATOM     18  CE3 TRP A   1      -2.891 -13.398   5.305  0.00  0.00    +0.001 A 
ATOM     19  CZ3 TRP A   1      -4.177 -12.762   4.954  0.00  0.00    +0.000 A 
ATOM     20  CH2 TRP A   1      -5.293 -13.583   4.559  0.00  0.00    +0.001 A 
ATOM     21  CZ2 TRP A   1      -5.190 -14.938   4.475  0.00  0.00    +0.017 A 
ATOM     22  CE2 TRP A   1      -3.938 -15.558   4.782  0.00  0.00    +0.056 A 
ATOM     23  NE1 TRP A   1      -3.576 -16.885   4.671  0.00  0.00    -0.352 N 
ATOM     24  HE1 TRP A   1      -4.189 -17.658   4.343  0.00  0.00    +0.166 HD
ATOM     25  CD1 TRP A   1      -2.276 -17.008   5.066  0.00  0.00    +0.068 A 
ENDBRANCH  15  16
ENDBRANCH   1  15
TORSDOF 8
REMARK  Name = ../refined-set-2016/3arr/3arr_pocket.pdb
REMARK  141 active torsions:
REMARK  status: ('A' for Active; 'I' for Inactive)
REMARK    1  A    between atoms: _1  and  _3
REMARK    2  A    between atoms: _3  and  _4
REMARK    3  A    between atoms: _3  and  _6
REMARK    4  A    between atoms: _6  and  _7
REMARK    5  A    between atoms: _17  and  _19
REMARK    6  A    between atoms: _19  and  _20
REMARK    7  A    between atoms: _19  and  _22
REMARK    8  A    between atoms: _22  and  _23
REMARK    9  A    between atoms: _26  and  _28
REMARK   10  A    between atoms: _28  and  _29
REMARK   11  A    between atoms: _28  and  _31
REMARK   12  A    between atoms: _31  and  _32
REMARK   13  A    between atoms: _32  and  _33
REMARK   14  A    between atoms: _36  and  _38
REMARK   15  A    between atoms: _38  and  _39
REMARK   16  A    between atoms: _38  and  _41
REMARK   17  A    between atoms: _41  and  _42
REMARK   18  A    between atoms: _48  and  _50
REMARK   19  A    between atoms: _50  and  _51
REMARK   20  A    between atoms: _53  and  _55
REMARK   21  A    between atoms: _55  and  _56
REMARK   22  A    between atoms: _58  and  _60
REMARK   23  A    between atoms: _60  and  _61
REMARK   24  A    between atoms: _63  and  _65
REMARK   25  A    between atoms: _65  and  _66
REMARK   26  A    between atoms: _69  and  _71
REMARK   27  A    between atoms: _71  and  _72
REMARK   28  A    between atoms: _71  and  _74
REMARK   29  A    between atoms: _74  and  _75
REMARK   30  A    between atoms: _78  and  _80
REMARK   31  A    between atoms: _80  and  _81
REMARK   32  A    between atoms: _83  and  _85
REMARK   33  A    between atoms: _85  and  _86
REMARK   34  A    between atoms: _85  and  _88
REMARK   35  A    between atoms: _91  and  _93
REMARK   36  A    between atoms: _93  and  _94
REMARK   37  A    between atoms: _96  and  _98
REMARK   38  A    between atoms: _98  and  _99
REMARK   39  A    between atoms: _98  and  _101
REMARK   40  A    between atoms: _101  and  _102
REMARK   41  A    between atoms: _107  and  _108
REMARK   42  A    between atoms: _110  and  _112
REMARK   43  A    between atoms: _112  and  _113
REMARK   44  A    between atoms: _112  and  _115
REMARK   45  A    between atoms: _115  and  _116
REMARK   46  A    between atoms: _119  and  _121
REMARK   47  A    between atoms: _121  and  _122
REMARK   48  A    between atoms: _121  and  _124
REMARK   49  A    between atoms: _124  and  _125
REMARK   50  A    between atoms: _125  and  _126
REMARK   51  A    between atoms: _126  and  _127
REMARK   52  A    between atoms: _127  and  _128
REMARK   53  A    between atoms: _132  and  _134
REMARK   54  A    between atoms: _134  and  _135
REMARK   55  A    between atoms: _134  and  _137
REMARK   56  A    between atoms: _137  and  _138
REMARK   57  A    between atoms: _141  and  _143
REMARK   58  A    between atoms: _143  and  _144
REMARK   59  A    between atoms: _143  and  _146
REMARK   60  A    between atoms: _146  and  _147
REMARK   61  A    between atoms: _147  and  _148
REMARK   62  A    between atoms: _150  and  _152
REMARK   63  A    between atoms: _152  and  _153
REMARK   64  A    between atoms: _152  and  _155
REMARK   65  A    between atoms: _155  and  _156
REMARK   66  A    between atoms: _159  and  _161
REMARK   67  A    between atoms: _161  and  _162
REMARK   68  A    between atoms: _161  and  _164
REMARK   69  A    between atoms: _164  and  _165
REMARK   70  A    between atoms: _170  and  _171
REMARK   71  A    between atoms: _173  and  _175
REMARK   72  A    between atoms: _175  and  _176
REMARK   73  A    between atoms: _175  and  _178
REMARK   74  A    between atoms: _178  and  _179
REMARK   75  A    between atoms: _182  and  _184
REMARK   76  A    between atoms: _184  and  _185
REMARK   77  A    between atoms: _184  and  _187
REMARK   78  A    between atoms: _187  and  _188
REMARK   79  A    between atoms: _194  and  _196
REMARK   80  A    between atoms: _196  and  _197
REMARK   81  A    between atoms: _196  and  _199
REMARK   82  A    between atoms: _199  and  _200
REMARK   83  A    between atoms: _205  and  _206
REMARK   84  A    between atoms: _208  and  _210
REMARK   85  A    between atoms: _210  and  _211
REMARK   86  A    between atoms: _213  and  _215
REMARK   87  A    between atoms: _215  and  _216
REMARK   88  A    between atoms: _218  and  _220
REMARK   89  A    between atoms: _220  and  _221
REMARK   90  A    between atoms: _220  and  _223
REMARK   91  A    between atoms: _223  and  _224
REMARK   92  A    between atoms: _234  and  _236
REMARK   93  A    between atoms: _236  and  _237
REMARK   94  A    between atoms: _236  and  _239
REMARK   95  A    between atoms: _239  and  _240
REMARK   96  A    between atoms: _245  and  _247
REMARK   97  A    between atoms: _247  and  _248
REMARK   98  A    between atoms: _247  and  _250
REMARK   99  A    between atoms: _250  and  _251
REMARK  100  A    between atoms: _251  and  _252
REMARK  101  A    between atoms: _257  and  _259
REMARK  102  A    between atoms: _259  and  _260
REMARK  103  A    between atoms: _263  and  _265
REMARK  104  A    between atoms: _265  and  _266
REMARK  105  A    between atoms: _265  and  _268
REMARK  106  A    between atoms: _268  and  _269
REMARK  107  A    between atoms: _274  and  _275
REMARK  108  A    between atoms: _277  and  _279
REMARK  109  A    between atoms: _279  and  _280
REMARK  110  A    between atoms: _279  and  _282
REMARK  111  A    between atoms: _282  and  _283
REMARK  112  A    between atoms: _286  and  _288
REMARK  113  A    between atoms: _288  and  _289
REMARK  114  A    between atoms: _288  and  _291
REMARK  115  A    between atoms: _291  and  _292
REMARK  116  A    between atoms: _297  and  _298
REMARK  117  A    between atoms: _300  and  _302
REMARK  118  A    between atoms: _302  and  _303
REMARK  119  A    between atoms: _302  and  _305
REMARK  120  A    between atoms: _305  and  _306
REMARK  121  A    between atoms: _306  and  _307
REMARK  122  A    between atoms: _307  and  _308
REMARK  123  A    between atoms: _317  and  _319
REMARK  124  A    between atoms: _319  and  _320
REMARK  125  A    between atoms: _319  and  _322
REMARK  126  A    between atoms: _322  and  _323
REMARK  127  A    between atoms: _323  and  _324
REMARK  128  A    between atoms: _324  and  _325
REMARK  129  A    between atoms: _325  and  _326
REMARK  130  A    between atoms: _330  and  _332
REMARK  131  A    between atoms: _332  and  _333
REMARK  132  A    between atoms: _332  and  _335
REMARK  133  A    between atoms: _335  and  _336
REMARK  134  A    between atoms: _336  and  _337
REMARK  135  A    between atoms: _340  and  _342
REMARK  136  A    between atoms: _342  and  _343
REMARK  137  A    between atoms: _342  and  _345
REMARK  138  A    between atoms: _348  and  _350
REMARK  139  A    between atoms: _350  and  _351
REMARK  140  A    between atoms: _350  and  _353
REMARK  141  A    between atoms: _353  and  _354
REMARK                            x       y       z     vdW  Elec       q    Type
REMARK                         _______ _______ _______ _____ _____    ______ ____
ROOT
ATOM      1  C   GLU A   1      -3.019 -10.942  10.749  0.00  0.00    +0.238 C 
ATOM      2  N   PHE A   2      -3.832 -10.018  11.306  0.00  0.00    -0.298 N 
ATOM      3  H   PHE A   2      -4.738 -10.357  11.689  0.00  0.00    +0.150 HD
ATOM      4  O   GLU A   1      -3.392 -12.137  10.671  0.00  0.00    -0.274 OA
ENDROOT
BRANCH   1   5
ATOM      5  CA  GLU A   1      -1.652 -10.499  10.299  0.00  0.00    +0.145 C 
BRANCH   5   6
ATOM      6  N   GLU A   1      -0.680 -10.757  11.409  0.00  0.00    -0.238 NA
ATOM      7  H   GLU A   1      -0.496 -11.733  11.719  0.00  0.00    +0.142 HD
ENDBRANCH   5   6
BRANCH   5   8
ATOM      8  CB  GLU A   1      -1.163 -11.301   9.078  0.00  0.00    +0.038 C 
BRANCH   8   9
ATOM      9  CG  GLU A   1       0.208 -10.748   8.533  0.00  0.00    +0.116 C 
BRANCH   9  10
ATOM     10  CD  GLU A   1       0.660 -11.446   7.257  0.00  0.00    +0.365 C 
ATOM     11  OE2 GLU A   1       1.875 -11.507   7.089  0.00  0.00    -0.246 OA
ATOM     12  OE1 GLU A   1      -0.173 -11.836   6.403  0.00  0.00    -0.246 OA
ENDBRANCH   9  10
ENDBRANCH   8   9
ENDBRANCH   5   8
ENDBRANCH   1   5
BRANCH   2  13
ATOM     13  CA  PHE A   2      -3.556  -8.579  11.422  0.00  0.00    +0.141 C 
BRANCH  13  14
ATOM     14  C   PHE A   2      -4.305  -8.174  12.721  0.00  0.00    +0.227 C 
ATOM     15  O   PHE A   2      -5.341  -8.745  13.001  0.00  0.00    -0.286 OA
ENDBRANCH  13  14
BRANCH  13  16
ATOM     16  CB  PHE A   2      -4.171  -7.772  10.270  0.00  0.00    +0.054 C 
BRANCH  16  17
ATOM     17  CG  PHE A   2      -3.675  -8.145   8.919  0.00  0.00    -0.020 A 
ATOM     18  CD2 PHE A   2      -2.492  -7.576   8.394  0.00  0.00    -0.004 A 
ATOM     19  CE2 PHE A   2      -2.028  -7.947   7.118  0.00  0.00    -0.000 A 
ATOM     20  CZ  PHE A   2      -2.788  -8.871   6.416  0.00  0.00    -0.000 A 
ATOM     21  CE1 PHE A   2      -3.916  -9.422   6.882  0.00  0.00    -0.000 A 
ATOM     22  CD1 PHE A   2      -4.414  -9.072   8.163  0.00  0.00    -0.004 A 
ENDBRANCH  16  17
ENDBRANCH  13  16
ENDBRANCH   2  13
TORSDOF 9
REMARK  Name = ../refined-set-2016/3arr/3arr_pocket.pdb
REMARK  141 active torsions:
REMARK  status: ('A' for Active; 'I' for Inactive)
REMARK    1  A    between atoms: _1  and  _3
REMARK    2  A    between atoms: _3  and  _4
REMARK    3  A    between atoms: _3  and  _6
REMARK    4  A    between atoms: _6  and  _7
REMARK    5  A    between atoms: _17  and  _19
REMARK    6  A    between atoms: _19  and  _20
REMARK    7  A    between atoms: _19  and  _22
REMARK    8  A    between atoms: _22  and  _23
REMARK    9  A    between atoms: _26  and  _28
REMARK   10  A    between atoms: _28  and  _29
REMARK   11  A    between atoms: _28  and  _31
REMARK   12  A    between atoms: _31  and  _32
REMARK   13  A    between atoms: _32  and  _33
REMARK   14  A    between atoms: _36  and  _38
REMARK   15  A    between atoms: _38  and  _39
REMARK   16  A    between atoms: _38  and  _41
REMARK   17  A    between atoms: _41  and  _42
REMARK   18  A    between atoms: _48  and  _50
REMARK   19  A    between atoms: _50  and  _51
REMARK   20  A    between atoms: _53  and  _55
REMARK   21  A    between atoms: _55  and  _56
REMARK   22  A    between atoms: _58  and  _60
REMARK   23  A    between atoms: _60  and  _61
REMARK   24  A    between atoms: _63  and  _65
REMARK   25  A    between atoms: _65  and  _66
REMARK   26  A    between atoms: _69  and  _71
REMARK   27  A    between atoms: _71  and  _72
REMARK   28  A    between atoms: _71  and  _74
REMARK   29  A    between atoms: _74  and  _75
REMARK   30  A    between atoms: _78  and  _80
REMARK   31  A    between atoms: _80  and  _81
REMARK   32  A    between atoms: _83  and  _85
REMARK   33  A    between atoms: _85  and  _86
REMARK   34  A    between atoms: _85  and  _88
REMARK   35  A    between atoms: _91  and  _93
REMARK   36  A    between atoms: _93  and  _94
REMARK   37  A    between atoms: _96  and  _98
REMARK   38  A    between atoms: _98  and  _99
REMARK   39  A    between atoms: _98  and  _101
REMARK   40  A    between atoms: _101  and  _102
REMARK   41  A    between atoms: _107  and  _108
REMARK   42  A    between atoms: _110  and  _112
REMARK   43  A    between atoms: _112  and  _113
REMARK   44  A    between atoms: _112  and  _115
REMARK   45  A    between atoms: _115  and  _116
REMARK   46  A    between atoms: _119  and  _121
REMARK   47  A    between atoms: _121  and  _122
REMARK   48  A    between atoms: _121  and  _124
REMARK   49  A    between atoms: _124  and  _125
REMARK   50  A    between atoms: _125  and  _126
REMARK   51  A    between atoms: _126  and  _127
REMARK   52  A    between atoms: _127  and  _128
REMARK   53  A    between atoms: _132  and  _134
REMARK   54  A    between atoms: _134  and  _135
REMARK   55  A    between atoms: _134  and  _137
REMARK   56  A    between atoms: _137  and  _138
REMARK   57  A    between atoms: _141  and  _143
REMARK   58  A    between atoms: _143  and  _144
REMARK   59  A    between atoms: _143  and  _146
REMARK   60  A    between atoms: _146  and  _147
REMARK   61  A    between atoms: _147  and  _148
REMARK   62  A    between atoms: _150  and  _152
REMARK   63  A    between atoms: _152  and  _153
REMARK   64  A    between atoms: _152  and  _155
REMARK   65  A    between atoms: _155  and  _156
REMARK   66  A    between atoms: _159  and  _161
REMARK   67  A    between atoms: _161  and  _162
REMARK   68  A    between atoms: _161  and  _164
REMARK   69  A    between atoms: _164  and  _165
REMARK   70  A    between atoms: _170  and  _171
REMARK   71  A    between atoms: _173  and  _175
REMARK   72  A    between atoms: _175  and  _176
REMARK   73  A    between atoms: _175  and  _178
REMARK   74  A    between atoms: _178  and  _179
REMARK   75  A    between atoms: _182  and  _184
REMARK   76  A    between atoms: _184  and  _185
REMARK   77  A    between atoms: _184  and  _187
REMARK   78  A    between atoms: _187  and  _188
REMARK   79  A    between atoms: _194  and  _196
REMARK   80  A    between atoms: _196  and  _197
REMARK   81  A    between atoms: _196  and  _199
REMARK   82  A    between atoms: _199  and  _200
REMARK   83  A    between atoms: _205  and  _206
REMARK   84  A    between atoms: _208  and  _210
REMARK   85  A    between atoms: _210  and  _211
REMARK   86  A    between atoms: _213  and  _215
REMARK   87  A    between atoms: _215  and  _216
REMARK   88  A    between atoms: _218  and  _220
REMARK   89  A    between atoms: _220  and  _221
REMARK   90  A    between atoms: _220  and  _223
REMARK   91  A    between atoms: _223  and  _224
REMARK   92  A    between atoms: _234  and  _236
REMARK   93  A    between atoms: _236  and  _237
REMARK   94  A    between atoms: _236  and  _239
REMARK   95  A    between atoms: _239  and  _240
REMARK   96  A    between atoms: _245  and  _247
REMARK   97  A    between atoms: _247  and  _248
REMARK   98  A    between atoms: _247  and  _250
REMARK   99  A    between atoms: _250  and  _251
REMARK  100  A    between atoms: _251  and  _252
REMARK  101  A    between atoms: _257  and  _259
REMARK  102  A    between atoms: _259  and  _260
REMARK  103  A    between atoms: _263  and  _265
REMARK  104  A    between atoms: _265  and  _266
REMARK  105  A    between atoms: _265  and  _268
REMARK  106  A    between atoms: _268  and  _269
REMARK  107  A    between atoms: _274  and  _275
REMARK  108  A    between atoms: _277  and  _279
REMARK  109  A    between atoms: _279  and  _280
REMARK  110  A    between atoms: _279  and  _282
REMARK  111  A    between atoms: _282  and  _283
REMARK  112  A    between atoms: _286  and  _288
REMARK  113  A    between atoms: _288  and  _289
REMARK  114  A    between atoms: _288  and  _291
REMARK  115  A    between atoms: _291  and  _292
REMARK  116  A    between atoms: _297  and  _298
REMARK  117  A    between atoms: _300  and  _302
REMARK  118  A    between atoms: _302  and  _303
REMARK  119  A    between atoms: _302  and  _305
REMARK  120  A    between atoms: _305  and  _306
REMARK  121  A    between atoms: _306  and  _307
REMARK  122  A    between atoms: _307  and  _308
REMARK  123  A    between atoms: _317  and  _319
REMARK  124  A    between atoms: _319  and  _320
REMARK  125  A    between atoms: _319  and  _322
REMARK  126  A    between atoms: _322  and  _323
REMARK  127  A    between atoms: _323  and  _324
REMARK  128  A    between atoms: _324  and  _325
REMARK  129  A    between atoms: _325  and  _326
REMARK  130  A    between atoms: _330  and  _332
REMARK  131  A    between atoms: _332  and  _333
REMARK  132  A    between atoms: _332  and  _335
REMARK  133  A    between atoms: _335  and  _336
REMARK  134  A    between atoms: _336  and  _337
REMARK  135  A    between atoms: _340  and  _342
REMARK  136  A    between atoms: _342  and  _343
REMARK  137  A    between atoms: _342  and  _345
REMARK  138  A    between atoms: _348  and  _350
REMARK  139  A    between atoms: _350  and  _351
REMARK  140  A    between atoms: _350  and  _353
REMARK  141  A    between atoms: _353  and  _354
REMARK                            x       y       z     vdW  Elec       q    Type
REMARK                         _______ _______ _______ _____ _____    ______ ____
ROOT
ATOM      1  C   GLY A   2      -7.731 -10.694   7.743  0.00  0.00    +0.243 C 
ATOM      2  N   GLY A   3      -7.245 -11.582   8.660  0.00  0.00    -0.295 N 
ATOM      3  H   GLY A   3      -7.607 -11.593   9.635  0.00  0.00    +0.150 HD
ATOM      4  O   GLY A   2      -7.270 -10.585   6.626  0.00  0.00    -0.273 OA
ENDROOT
BRANCH   1   5
ATOM      5  CA  GLY A   2      -8.874  -9.814   8.142  0.00  0.00    +0.176 C 
BRANCH   5   8
ATOM      6  C   GLY A   1      -8.438  -9.142  10.463  0.00  0.00    +0.240 C 
ATOM      7  O   GLY A   1      -7.723  -8.228  10.112  0.00  0.00    -0.274 OA
ATOM      8  N   GLY A   2      -9.072  -9.955   9.621  0.00  0.00    -0.295 N 
ATOM      9  H   GLY A   2      -9.707 -10.691   9.991  0.00  0.00    +0.150 HD
BRANCH   6  10
ATOM     10  CA  GLY A   1      -8.689  -9.427  11.934  0.00  0.00    +0.169 C 
BRANCH  10  11
ATOM     11  N   GLY A   1      -8.247  -8.278  12.798  0.00  0.00    -0.236 NA
ATOM     12  H   GLY A   1      -7.227  -8.148  12.955  0.00  0.00    +0.142 HD
ENDBRANCH  10  11
ENDBRANCH   6  10
ENDBRANCH   5   8
ENDBRANCH   1   5
BRANCH   2  13
ATOM     13  CA  GLY A   3      -6.146 -12.568   8.214  0.00  0.00    +0.176 C 
BRANCH  13  14
ATOM     14  C   GLY A   3      -6.701 -13.919   7.862  0.00  0.00    +0.243 C 
ATOM     15  N   ALA A   4      -5.890 -14.972   8.057  0.00  0.00    -0.298 N 
ATOM     16  H   ALA A   4      -4.957 -14.819   8.491  0.00  0.00    +0.150 HD
ATOM     17  O   GLY A   3      -7.871 -13.998   7.464  0.00  0.00    -0.273 OA
BRANCH  15  18
ATOM     18  CA  ALA A   4      -6.278 -16.313   7.680  0.00  0.00    +0.137 C 
ATOM     19  CB  ALA A   4      -5.142 -17.241   7.877  0.00  0.00    +0.030 C 
BRANCH  18  20
ATOM     20  C   ALA A   4      -7.441 -16.814   8.479  0.00  0.00    +0.227 C 
ATOM     21  O   ALA A   4      -8.241 -17.561   7.943  0.00  0.00    -0.286 OA
ENDBRANCH  18  20
ENDBRANCH  15  18
ENDBRANCH  13  14
ENDBRANCH   2  13
TORSDOF 8
REMARK  Name = ../refined-set-2016/3arr/3arr_pocket.pdb
REMARK  141 active torsions:
REMARK  status: ('A' for Active; 'I' for Inactive)
REMARK    1  A    between atoms: _1  and  _3
REMARK    2  A    between atoms: _3  and  _4
REMARK    3  A    between atoms: _3  and  _6
REMARK    4  A    between atoms: _6  and  _7
REMARK    5  A    between atoms: _17  and  _19
REMARK    6  A    between atoms: _19  and  _20
REMARK    7  A    between atoms: _19  and  _22
REMARK    8  A    between atoms: _22  and  _23
REMARK    9  A    between atoms: _26  and  _28
REMARK   10  A    between atoms: _28  and  _29
REMARK   11  A    between atoms: _28  and  _31
REMARK   12  A    between atoms: _31  and  _32
REMARK   13  A    between atoms: _32  and  _33
REMARK   14  A    between atoms: _36  and  _38
REMARK   15  A    between atoms: _38  and  _39
REMARK   16  A    between atoms: _38  and  _41
REMARK   17  A    between atoms: _41  and  _42
REMARK   18  A    between atoms: _48  and  _50
REMARK   19  A    between atoms: _50  and  _51
REMARK   20  A    between atoms: _53  and  _55
REMARK   21  A    between atoms: _55  and  _56
REMARK   22  A    between atoms: _58  and  _60
REMARK   23  A    between atoms: _60  and  _61
REMARK   24  A    between atoms: _63  and  _65
REMARK   25  A    between atoms: _65  and  _66
REMARK   26  A    between atoms: _69  and  _71
REMARK   27  A    between atoms: _71  and  _72
REMARK   28  A    between atoms: _71  and  _74
REMARK   29  A    between atoms: _74  and  _75
REMARK   30  A    between atoms: _78  and  _80
REMARK   31  A    between atoms: _80  and  _81
REMARK   32  A    between atoms: _83  and  _85
REMARK   33  A    between atoms: _85  and  _86
REMARK   34  A    between atoms: _85  and  _88
REMARK   35  A    between atoms: _91  and  _93
REMARK   36  A    between atoms: _93  and  _94
REMARK   37  A    between atoms: _96  and  _98
REMARK   38  A    between atoms: _98  and  _99
REMARK   39  A    between atoms: _98  and  _101
REMARK   40  A    between atoms: _101  and  _102
REMARK   41  A    between atoms: _107  and  _108
REMARK   42  A    between atoms: _110  and  _112
REMARK   43  A    between atoms: _112  and  _113
REMARK   44  A    between atoms: _112  and  _115
REMARK   45  A    between atoms: _115  and  _116
REMARK   46  A    between atoms: _119  and  _121
REMARK   47  A    between atoms: _121  and  _122
REMARK   48  A    between atoms: _121  and  _124
REMARK   49  A    between atoms: _124  and  _125
REMARK   50  A    between atoms: _125  and  _126
REMARK   51  A    between atoms: _126  and  _127
REMARK   52  A    between atoms: _127  and  _128
REMARK   53  A    between atoms: _132  and  _134
REMARK   54  A    between atoms: _134  and  _135
REMARK   55  A    between atoms: _134  and  _137
REMARK   56  A    between atoms: _137  and  _138
REMARK   57  A    between atoms: _141  and  _143
REMARK   58  A    between atoms: _143  and  _144
REMARK   59  A    between atoms: _143  and  _146
REMARK   60  A    between atoms: _146  and  _147
REMARK   61  A    between atoms: _147  and  _148
REMARK   62  A    between atoms: _150  and  _152
REMARK   63  A    between atoms: _152  and  _153
REMARK   64  A    between atoms: _152  and  _155
REMARK   65  A    between atoms: _155  and  _156
REMARK   66  A    between atoms: _159  and  _161
REMARK   67  A    between atoms: _161  and  _162
REMARK   68  A    between atoms: _161  and  _164
REMARK   69  A    between atoms: _164  and  _165
REMARK   70  A    between atoms: _170  and  _171
REMARK   71  A    between atoms: _173  and  _175
REMARK   72  A    between atoms: _175  and  _176
REMARK   73  A    between atoms: _175  and  _178
REMARK   74  A    between atoms: _178  and  _179
REMARK   75  A    between atoms: _182  and  _184
REMARK   76  A    between atoms: _184  and  _185
REMARK   77  A    between atoms: _184  and  _187
REMARK   78  A    between atoms: _187  and  _188
REMARK   79  A    between atoms: _194  and  _196
REMARK   80  A    between atoms: _196  and  _197
REMARK   81  A    between atoms: _196  and  _199
REMARK   82  A    between atoms: _199  and  _200
REMARK   83  A    between atoms: _205  and  _206
REMARK   84  A    between atoms: _208  and  _210
REMARK   85  A    between atoms: _210  and  _211
REMARK   86  A    between atoms: _213  and  _215
REMARK   87  A    between atoms: _215  and  _216
REMARK   88  A    between atoms: _218  and  _220
REMARK   89  A    between atoms: _220  and  _221
REMARK   90  A    between atoms: _220  and  _223
REMARK   91  A    between atoms: _223  and  _224
REMARK   92  A    between atoms: _234  and  _236
REMARK   93  A    between atoms: _236  and  _237
REMARK   94  A    between atoms: _236  and  _239
REMARK   95  A    between atoms: _239  and  _240
REMARK   96  A    between atoms: _245  and  _247
REMARK   97  A    between atoms: _247  and  _248
REMARK   98  A    between atoms: _247  and  _250
REMARK   99  A    between atoms: _250  and  _251
REMARK  100  A    between atoms: _251  and  _252
REMARK  101  A    between atoms: _257  and  _259
REMARK  102  A    between atoms: _259  and  _260
REMARK  103  A    between atoms: _263  and  _265
REMARK  104  A    between atoms: _265  and  _266
REMARK  105  A    between atoms: _265  and  _268
REMARK  106  A    between atoms: _268  and  _269
REMARK  107  A    between atoms: _274  and  _275
REMARK  108  A    between atoms: _277  and  _279
REMARK  109  A    between atoms: _279  and  _280
REMARK  110  A    between atoms: _279  and  _282
REMARK  111  A    between atoms: _282  and  _283
REMARK  112  A    between atoms: _286  and  _288
REMARK  113  A    between atoms: _288  and  _289
REMARK  114  A    between atoms: _288  and  _291
REMARK  115  A    between atoms: _291  and  _292
REMARK  116  A    between atoms: _297  and  _298
REMARK  117  A    between atoms: _300  and  _302
REMARK  118  A    between atoms: _302  and  _303
REMARK  119  A    between atoms: _302  and  _305
REMARK  120  A    between atoms: _305  and  _306
REMARK  121  A    between atoms: _306  and  _307
REMARK  122  A    between atoms: _307  and  _308
REMARK  123  A    between atoms: _317  and  _319
REMARK  124  A    between atoms: _319  and  _320
REMARK  125  A    between atoms: _319  and  _322
REMARK  126  A    between atoms: _322  and  _323
REMARK  127  A    between atoms: _323  and  _324
REMARK  128  A    between atoms: _324  and  _325
REMARK  129  A    between atoms: _325  and  _326
REMARK  130  A    between atoms: _330  and  _332
REMARK  131  A    between atoms: _332  and  _333
REMARK  132  A    between atoms: _332  and  _335
REMARK  133  A    between atoms: _335  and  _336
REMARK  134  A    between atoms: _336  and  _337
REMARK  135  A    between atoms: _340  and  _342
REMARK  136  A    between atoms: _342  and  _343
REMARK  137  A    between atoms: _342  and  _345
REMARK  138  A    between atoms: _348  and  _350
REMARK  139  A    between atoms: _350  and  _351
REMARK  140  A    between atoms: _350  and  _353
REMARK  141  A    between atoms: _353  and  _354
REMARK                            x       y       z     vdW  Elec       q    Type
REMARK                         _______ _______ _______ _____ _____    ______ ____
ROOT
ATOM      1  CA  TYR A   5      -7.182   1.356   5.126  0.00  0.00    +0.153 C 
ENDROOT
BRANCH   1   2
ATOM      2  C   TYR A   5      -7.788   0.675   6.341  0.00  0.00    +0.241 C 
ATOM      3  O   TYR A   5      -7.673   1.187   7.474  0.00  0.00    -0.273 OA
ATOM      4  N   ASP A   6      -8.424  -0.479   6.115  0.00  0.00    -0.297 N 
ATOM      5  H   ASP A   6      -8.436  -0.860   5.147  0.00  0.00    +0.150 HD
BRANCH   4   6
ATOM      6  CA  ASP A   6      -9.092  -1.215   7.152  0.00  0.00    +0.160 C 
BRANCH   6   7
ATOM      7  C   ASP A   6      -8.095  -1.842   8.138  0.00  0.00    +0.241 C 
ATOM      8  O   ASP A   6      -8.481  -2.116   9.296  0.00  0.00    -0.273 OA
ATOM      9  N   LYS A   7      -6.862  -2.111   7.684  0.00  0.00    -0.297 N 
ATOM     10  H   LYS A   7      -6.610  -1.941   6.690  0.00  0.00    +0.150 HD
BRANCH   9  11
ATOM     11  CA  LYS A   7      -5.870  -2.657   8.638  0.00  0.00    +0.149 C 
BRANCH  11  12
ATOM     12  C   LYS A   7      -5.258  -1.518   9.417  0.00  0.00    +0.241 C 
ATOM     13  O   LYS A   7      -5.073  -1.640  10.650  0.00  0.00    -0.273 OA
ATOM     14  N   ILE A   8      -5.005  -0.384   8.741  0.00  0.00    -0.298 N 
ATOM     15  H   ILE A   8      -5.359  -0.276   7.769  0.00  0.00    +0.150 HD
BRANCH  14  16
ATOM     16  CA  ILE A   8      -4.225   0.719   9.364  0.00  0.00    +0.137 C 
BRANCH  16  17
ATOM     17  C   ILE A   8      -5.127   1.370  10.380  0.00  0.00    +0.227 C 
ATOM     18  O   ILE A   8      -4.620   1.763  11.425  0.00  0.00    -0.286 OA
ENDBRANCH  16  17
BRANCH  16  19
ATOM     19  CB  ILE A   8      -3.783   1.705   8.285  0.00  0.00    +0.026 C 
ATOM     20  CG2 ILE A   8      -3.202   2.977   8.985  0.00  0.00    +0.002 C 
BRANCH  19  21
ATOM     21  CG1 ILE A   8      -2.732   0.994   7.452  0.00  0.00    +0.002 C 
ATOM     22  CD1 ILE A   8      -2.303   1.764   6.122  0.00  0.00    +0.000 C 
ENDBRANCH  19  21
ENDBRANCH  16  19
ENDBRANCH  14  16
ENDBRANCH  11  12
BRANCH  11  23
ATOM     23  CB  LYS A   7      -4.685  -3.299   7.825  0.00  0.00    +0.029 C 
BRANCH  23  24
ATOM     24  CG  LYS A   7      -5.183  -4.427   6.913  0.00  0.00    +0.000 C 
BRANCH  24  25
ATOM     25  CD  LYS A   7      -6.175  -5.371   7.445  0.00  0.00    -0.024 C 
BRANCH  25  26
ATOM     26  CE  LYS A   7      -6.445  -6.584   6.506  0.00  0.00    -0.086 C 
BRANCH  26  27
ATOM     27  NZ  LYS A   7      -7.253  -6.205   5.294  0.00  0.00    +0.380 N 
ATOM     28  HZ1 LYS A   7      -8.172  -5.823   5.597  0.00  0.00    -0.089 HD
ATOM     29  HZ2 LYS A   7      -6.739  -5.484   4.748  0.00  0.00    -0.089 HD
ATOM     30  HZ3 LYS A   7      -7.405  -7.047   4.703  0.00  0.00    -0.089 HD
ENDBRANCH  26  27
ENDBRANCH  25  26
ENDBRANCH  24  25
ENDBRANCH  23  24
ENDBRANCH  11  23
ENDBRANCH   9  11
ENDBRANCH   6   7
BRANCH   6  31
ATOM     31  CB  ASP A   6     -10.010  -2.316   6.574  0.00  0.00    +0.143 C 
BRANCH  31  32
ATOM     32  CG  ASP A   6      -9.267  -3.285   5.702  0.00  0.00    +0.367 C 
ATOM     33  OD2 ASP A   6      -9.258  -4.501   6.043  0.00  0.00    -0.246 OA
ATOM     34  OD1 ASP A   6      -8.707  -2.827   4.661  0.00  0.00    -0.246 OA
ENDBRANCH  31  32
ENDBRANCH   6  31
ENDBRANCH   4   6
ENDBRANCH   1   2
BRANCH   1  37
ATOM     35  C   GLY A   4      -5.802  -0.519   4.548  0.00  0.00    +0.243 C 
ATOM     36  O   GLY A   4      -5.385  -0.612   5.697  0.00  0.00    -0.273 OA
ATOM     37  N   TYR A   5      -6.677   0.381   4.154  0.00  0.00    -0.297 N 
ATOM     38  H   TYR A   5      -7.006   0.401   3.168  0.00  0.00    +0.150 HD
BRANCH  35  39
ATOM     39  CA  GLY A   4      -5.317  -1.527   3.518  0.00  0.00    +0.176 C 
BRANCH  39  41
ATOM     40  C   VAL A   3      -2.965  -1.028   3.867  0.00  0.00    +0.241 C 
ATOM     41  N   GLY A   4      -3.941  -1.975   3.898  0.00  0.00    -0.295 N 
ATOM     42  H   GLY A   4      -3.741  -2.958   4.171  0.00  0.00    +0.150 HD
ATOM     43  O   VAL A   3      -3.115   0.117   3.378  0.00  0.00    -0.273 OA
BRANCH  40  44
ATOM     44  CA  VAL A   3      -1.638  -1.372   4.463  0.00  0.00    +0.149 C 
BRANCH  44  47
ATOM     45  C   GLY A   2      -1.189  -3.044   6.153  0.00  0.00    +0.243 C 
ATOM     46  O   GLY A   2      -1.046  -2.182   6.999  0.00  0.00    -0.273 OA
ATOM     47  N   VAL A   3      -1.484  -2.780   4.855  0.00  0.00    -0.297 N 
ATOM     48  H   VAL A   3      -1.597  -3.547   4.162  0.00  0.00    +0.150 HD
BRANCH  45  49
ATOM     49  CA  GLY A   2      -1.042  -4.525   6.470  0.00  0.00    +0.176 C 
BRANCH  49  51
ATOM     50  C   ILE A   1       1.169  -4.420   7.452  0.00  0.00    +0.238 C 
ATOM     51  N   GLY A   2      -0.121  -4.704   7.618  0.00  0.00    -0.296 N 
ATOM     52  H   GLY A   2      -0.476  -5.045   8.534  0.00  0.00    +0.150 HD
ATOM     53  O   ILE A   1       1.709  -4.192   6.354  0.00  0.00    -0.274 OA
BRANCH  50  54
ATOM     54  CA  ILE A   1       1.982  -4.493   8.730  0.00  0.00    +0.145 C 
BRANCH  54  55
ATOM     55  N   ILE A   1       3.411  -4.789   8.506  0.00  0.00    -0.238 NA
ATOM     56  H   ILE A   1       3.953  -4.209   7.834  0.00  0.00    +0.142 HD
ENDBRANCH  54  55
BRANCH  54  57
ATOM     57  CB  ILE A   1       1.822  -3.148   9.434  0.00  0.00    +0.025 C 
ATOM     58  CG2 ILE A   1       2.731  -3.131  10.712  0.00  0.00    +0.002 C 
BRANCH  57  59
ATOM     59  CG1 ILE A   1       2.275  -2.006   8.489  0.00  0.00    +0.002 C 
ATOM     60  CD1 ILE A   1       1.898  -0.657   8.987  0.00  0.00    +0.000 C 
ENDBRANCH  57  59
ENDBRANCH  54  57
ENDBRANCH  50  54
ENDBRANCH  49  51
ENDBRANCH  45  49
ENDBRANCH  44  47
BRANCH  44  61
ATOM     61  CB  VAL A   3      -0.506  -0.936   3.481  0.00  0.00    +0.027 C 
ATOM     62  CG2 VAL A   3       0.833  -1.214   4.145  0.00  0.00    +0.002 C 
ATOM     63  CG1 VAL A   3      -0.682  -1.667   2.078  0.00  0.00    +0.002 C 
ENDBRANCH  44  61
ENDBRANCH  40  44
ENDBRANCH  39  41
ENDBRANCH  35  39
ENDBRANCH   1  37
BRANCH   1  64
ATOM     64  CB  TYR A   5      -8.247   2.330   4.427  0.00  0.00    +0.055 C 
BRANCH  64  65
ATOM     65  CG  TYR A   5      -9.549   1.602   4.302  0.00  0.00    -0.020 A 
ATOM     66  CD2 TYR A   5     -10.529   1.714   5.336  0.00  0.00    -0.001 A 
ATOM     67  CE2 TYR A   5     -11.666   1.000   5.316  0.00  0.00    +0.036 A 
ATOM     68  CZ  TYR A   5     -11.897   0.212   4.288  0.00  0.00    +0.134 A 
ATOM     69  CE1 TYR A   5     -10.975   0.075   3.234  0.00  0.00    +0.036 A 
ATOM     70  CD1 TYR A   5      -9.828   0.821   3.219  0.00  0.00    -0.001 A 
BRANCH  68  71
ATOM     71  OH  TYR A   5     -13.077  -0.456   4.354  0.00  0.00    -0.506 OA
ATOM     72  HH  TYR A   5     -13.554  -0.199   5.182  0.00  0.00    +0.292 HD
ENDBRANCH  68  71
ENDBRANCH  64  65
ENDBRANCH   1  64
TORSDOF 31
REMARK  Name = ../refined-set-2016/3arr/3arr_pocket.pdb
REMARK  141 active torsions:
REMARK  status: ('A' for Active; 'I' for Inactive)
REMARK    1  A    between atoms: _1  and  _3
REMARK    2  A    between atoms: _3  and  _4
REMARK    3  A    between atoms: _3  and  _6
REMARK    4  A    between atoms: _6  and  _7
REMARK    5  A    between atoms: _17  and  _19
REMARK    6  A    between atoms: _19  and  _20
REMARK    7  A    between atoms: _19  and  _22
REMARK    8  A    between atoms: _22  and  _23
REMARK    9  A    between atoms: _26  and  _28
REMARK   10  A    between atoms: _28  and  _29
REMARK   11  A    between atoms: _28  and  _31
REMARK   12  A    between atoms: _31  and  _32
REMARK   13  A    between atoms: _32  and  _33
REMARK   14  A    between atoms: _36  and  _38
REMARK   15  A    between atoms: _38  and  _39
REMARK   16  A    between atoms: _38  and  _41
REMARK   17  A    between atoms: _41  and  _42
REMARK   18  A    between atoms: _48  and  _50
REMARK   19  A    between atoms: _50  and  _51
REMARK   20  A    between atoms: _53  and  _55
REMARK   21  A    between atoms: _55  and  _56
REMARK   22  A    between atoms: _58  and  _60
REMARK   23  A    between atoms: _60  and  _61
REMARK   24  A    between atoms: _63  and  _65
REMARK   25  A    between atoms: _65  and  _66
REMARK   26  A    between atoms: _69  and  _71
REMARK   27  A    between atoms: _71  and  _72
REMARK   28  A    between atoms: _71  and  _74
REMARK   29  A    between atoms: _74  and  _75
REMARK   30  A    between atoms: _78  and  _80
REMARK   31  A    between atoms: _80  and  _81
REMARK   32  A    between atoms: _83  and  _85
REMARK   33  A    between atoms: _85  and  _86
REMARK   34  A    between atoms: _85  and  _88
REMARK   35  A    between atoms: _91  and  _93
REMARK   36  A    between atoms: _93  and  _94
REMARK   37  A    between atoms: _96  and  _98
REMARK   38  A    between atoms: _98  and  _99
REMARK   39  A    between atoms: _98  and  _101
REMARK   40  A    between atoms: _101  and  _102
REMARK   41  A    between atoms: _107  and  _108
REMARK   42  A    between atoms: _110  and  _112
REMARK   43  A    between atoms: _112  and  _113
REMARK   44  A    between atoms: _112  and  _115
REMARK   45  A    between atoms: _115  and  _116
REMARK   46  A    between atoms: _119  and  _121
REMARK   47  A    between atoms: _121  and  _122
REMARK   48  A    between atoms: _121  and  _124
REMARK   49  A    between atoms: _124  and  _125
REMARK   50  A    between atoms: _125  and  _126
REMARK   51  A    between atoms: _126  and  _127
REMARK   52  A    between atoms: _127  and  _128
REMARK   53  A    between atoms: _132  and  _134
REMARK   54  A    between atoms: _134  and  _135
REMARK   55  A    between atoms: _134  and  _137
REMARK   56  A    between atoms: _137  and  _138
REMARK   57  A    between atoms: _141  and  _143
REMARK   58  A    between atoms: _143  and  _144
REMARK   59  A    between atoms: _143  and  _146
REMARK   60  A    between atoms: _146  and  _147
REMARK   61  A    between atoms: _147  and  _148
REMARK   62  A    between atoms: _150  and  _152
REMARK   63  A    between atoms: _152  and  _153
REMARK   64  A    between atoms: _152  and  _155
REMARK   65  A    between atoms: _155  and  _156
REMARK   66  A    between atoms: _159  and  _161
REMARK   67  A    between atoms: _161  and  _162
REMARK   68  A    between atoms: _161  and  _164
REMARK   69  A    between atoms: _164  and  _165
REMARK   70  A    between atoms: _170  and  _171
REMARK   71  A    between atoms: _173  and  _175
REMARK   72  A    between atoms: _175  and  _176
REMARK   73  A    between atoms: _175  and  _178
REMARK   74  A    between atoms: _178  and  _179
REMARK   75  A    between atoms: _182  and  _184
REMARK   76  A    between atoms: _184  and  _185
REMARK   77  A    between atoms: _184  and  _187
REMARK   78  A    between atoms: _187  and  _188
REMARK   79  A    between atoms: _194  and  _196
REMARK   80  A    between atoms: _196  and  _197
REMARK   81  A    between atoms: _196  and  _199
REMARK   82  A    between atoms: _199  and  _200
REMARK   83  A    between atoms: _205  and  _206
REMARK   84  A    between atoms: _208  and  _210
REMARK   85  A    between atoms: _210  and  _211
REMARK   86  A    between atoms: _213  and  _215
REMARK   87  A    between atoms: _215  and  _216
REMARK   88  A    between atoms: _218  and  _220
REMARK   89  A    between atoms: _220  and  _221
REMARK   90  A    between atoms: _220  and  _223
REMARK   91  A    between atoms: _223  and  _224
REMARK   92  A    between atoms: _234  and  _236
REMARK   93  A    between atoms: _236  and  _237
REMARK   94  A    between atoms: _236  and  _239
REMARK   95  A    between atoms: _239  and  _240
REMARK   96  A    between atoms: _245  and  _247
REMARK   97  A    between atoms: _247  and  _248
REMARK   98  A    between atoms: _247  and  _250
REMARK   99  A    between atoms: _250  and  _251
REMARK  100  A    between atoms: _251  and  _252
REMARK  101  A    between atoms: _257  and  _259
REMARK  102  A    between atoms: _259  and  _260
REMARK  103  A    between atoms: _263  and  _265
REMARK  104  A    between atoms: _265  and  _266
REMARK  105  A    between atoms: _265  and  _268
REMARK  106  A    between atoms: _268  and  _269
REMARK  107  A    between atoms: _274  and  _275
REMARK  108  A    between atoms: _277  and  _279
REMARK  109  A    between atoms: _279  and  _280
REMARK  110  A    between atoms: _279  and  _282
REMARK  111  A    between atoms: _282  and  _283
REMARK  112  A    between atoms: _286  and  _288
REMARK  113  A    between atoms: _288  and  _289
REMARK  114  A    between atoms: _288  and  _291
REMARK  115  A    between atoms: _291  and  _292
REMARK  116  A    between atoms: _297  and  _298
REMARK  117  A    between atoms: _300  and  _302
REMARK  118  A    between atoms: _302  and  _303
REMARK  119  A    between atoms: _302  and  _305
REMARK  120  A    between atoms: _305  and  _306
REMARK  121  A    between atoms: _306  and  _307
REMARK  122  A    between atoms: _307  and  _308
REMARK  123  A    between atoms: _317  and  _319
REMARK  124  A    between atoms: _319  and  _320
REMARK  125  A    between atoms: _319  and  _322
REMARK  126  A    between atoms: _322  and  _323
REMARK  127  A    between atoms: _323  and  _324
REMARK  128  A    between atoms: _324  and  _325
REMARK  129  A    between atoms: _325  and  _326
REMARK  130  A    between atoms: _330  and  _332
REMARK  131  A    between atoms: _332  and  _333
REMARK  132  A    between atoms: _332  and  _335
REMARK  133  A    between atoms: _335  and  _336
REMARK  134  A    between atoms: _336  and  _337
REMARK  135  A    between atoms: _340  and  _342
REMARK  136  A    between atoms: _342  and  _343
REMARK  137  A    between atoms: _342  and  _345
REMARK  138  A    between atoms: _348  and  _350
REMARK  139  A    between atoms: _350  and  _351
REMARK  140  A    between atoms: _350  and  _353
REMARK  141  A    between atoms: _353  and  _354
REMARK                            x       y       z     vdW  Elec       q    Type
REMARK                         _______ _______ _______ _____ _____    ______ ____
ROOT
ATOM      1  C   PHE A   5      -4.966  -6.797  -3.625  0.00  0.00    +0.241 C 
ATOM      2  O   PHE A   5      -6.163  -6.614  -3.270  0.00  0.00    -0.273 OA
ATOM      3  N   TYR A   6      -4.564  -7.635  -4.616  0.00  0.00    -0.297 N 
ATOM      4  H   TYR A   6      -3.547  -7.717  -4.815  0.00  0.00    +0.150 HD
ENDROOT
BRANCH   3   5
ATOM      5  CA  TYR A   6      -5.530  -8.454  -5.442  0.00  0.00    +0.153 C 
BRANCH   5   6
ATOM      6  C   TYR A   6      -4.835  -9.817  -5.576  0.00  0.00    +0.241 C 
ATOM      7  O   TYR A   6      -3.615  -9.902  -5.475  0.00  0.00    -0.273 OA
ATOM      8  N   GLY A   7      -5.649 -10.840  -5.834  0.00  0.00    -0.295 N 
ATOM      9  H   GLY A   7      -6.676 -10.715  -5.944  0.00  0.00    +0.150 HD
BRANCH   8  10
ATOM     10  CA  GLY A   7      -5.008 -12.154  -5.953  0.00  0.00    +0.176 C 
BRANCH  10  11
ATOM     11  C   GLY A   7      -6.012 -13.179  -6.368  0.00  0.00    +0.243 C 
ATOM     12  N   GLY A   8      -5.460 -14.404  -6.484  0.00  0.00    -0.295 N 
ATOM     13  H   GLY A   8      -4.472 -14.575  -6.208  0.00  0.00    +0.150 HD
ATOM     14  O   GLY A   7      -7.185 -12.957  -6.529  0.00  0.00    -0.273 OA
BRANCH  12  15
ATOM     15  CA  GLY A   8      -6.312 -15.509  -7.022  0.00  0.00    +0.176 C 
BRANCH  15  16
ATOM     16  C   GLY A   8      -7.320 -16.102  -6.007  0.00  0.00    +0.243 C 
ATOM     17  N   TRP A   9      -7.340 -15.607  -4.790  0.00  0.00    -0.297 N 
ATOM     18  H   TRP A   9      -6.561 -14.995  -4.473  0.00  0.00    +0.150 HD
ATOM     19  O   GLY A   8      -8.109 -16.981  -6.334  0.00  0.00    -0.273 OA
BRANCH  17  20
ATOM     20  CA  TRP A   9      -8.475 -15.913  -3.847  0.00  0.00    +0.153 C 
BRANCH  20  21
ATOM     21  C   TRP A   9      -9.842 -15.535  -4.337  0.00  0.00    +0.241 C 
ATOM     22  O   TRP A   9     -10.832 -16.070  -3.845  0.00  0.00    -0.273 OA
ATOM     23  N   ASN A  10      -9.946 -14.643  -5.307  0.00  0.00    -0.298 N 
ATOM     24  H   ASN A  10      -9.110 -14.103  -5.608  0.00  0.00    +0.150 HD
BRANCH  23  25
ATOM     25  CA  ASN A  10     -11.219 -14.417  -5.950  0.00  0.00    +0.146 C 
BRANCH  25  26
ATOM     26  C   ASN A  10     -10.958 -14.131  -7.408  0.00  0.00    +0.227 C 
ATOM     27  O   ASN A  10      -9.829 -14.361  -7.899  0.00  0.00    -0.286 OA
ENDBRANCH  25  26
BRANCH  25  28
ATOM     28  CB  ASN A  10     -12.008 -13.312  -5.283  0.00  0.00    +0.112 C 
BRANCH  28  29
ATOM     29  CG  ASN A  10     -11.273 -11.980  -5.392  0.00  0.00    +0.222 C 
ATOM     30  ND2 ASN A  10     -11.412 -11.129  -4.348  0.00  0.00    -0.329 N 
ATOM     31 HD21 ASN A  10     -12.014 -11.390  -3.541  0.00  0.00    +0.145 HD
ATOM     32 HD22 ASN A  10     -10.916 -10.215  -4.353  0.00  0.00    +0.145 HD
ATOM     33  OD1 ASN A  10     -10.569 -11.728  -6.384  0.00  0.00    -0.275 OA
ENDBRANCH  28  29
ENDBRANCH  25  28
ENDBRANCH  23  25
ENDBRANCH  20  21
BRANCH  20  34
ATOM     34  CB  TRP A   9      -8.207 -15.332  -2.474  0.00  0.00    +0.057 C 
BRANCH  34  35
ATOM     35  CG  TRP A   9      -7.836 -13.851  -2.501  0.00  0.00    -0.002 A 
ATOM     36  CD2 TRP A   9      -6.509 -13.298  -2.460  0.00  0.00    +0.013 A 
ATOM     37  CE3 TRP A   9      -5.245 -13.852  -2.317  0.00  0.00    +0.001 A 
ATOM     38  CZ3 TRP A   9      -4.110 -12.960  -2.264  0.00  0.00    +0.000 A 
ATOM     39  CH2 TRP A   9      -4.321 -11.540  -2.289  0.00  0.00    +0.001 A 
ATOM     40  CZ2 TRP A   9      -5.548 -11.024  -2.386  0.00  0.00    +0.017 A 
ATOM     41  CE2 TRP A   9      -6.644 -11.901  -2.429  0.00  0.00    +0.056 A 
ATOM     42  NE1 TRP A   9      -7.960 -11.621  -2.536  0.00  0.00    -0.352 N 
ATOM     43  HE1 TRP A   9      -8.357 -10.663  -2.616  0.00  0.00    +0.166 HD
ATOM     44  CD1 TRP A   9      -8.705 -12.782  -2.525  0.00  0.00    +0.068 A 
ENDBRANCH  34  35
ENDBRANCH  20  34
ENDBRANCH  17  20
ENDBRANCH  15  16
ENDBRANCH  12  15
ENDBRANCH  10  11
ENDBRANCH   8  10
ENDBRANCH   5   6
BRANCH   5  45
ATOM     45  CB  TYR A   6      -5.716  -7.845  -6.834  0.00  0.00    +0.055 C 
BRANCH  45  46
ATOM     46  CG  TYR A   6      -6.544  -6.564  -6.773  0.00  0.00    -0.020 A 
ATOM     47  CD2 TYR A   6      -5.930  -5.350  -6.422  0.00  0.00    -0.001 A 
ATOM     48  CE2 TYR A   6      -6.696  -4.193  -6.276  0.00  0.00    +0.036 A 
ATOM     49  CZ  TYR A   6      -8.028  -4.247  -6.613  0.00  0.00    +0.134 A 
ATOM     50  CE1 TYR A   6      -8.655  -5.453  -7.050  0.00  0.00    +0.036 A 
ATOM     51  CD1 TYR A   6      -7.913  -6.611  -7.069  0.00  0.00    -0.001 A 
BRANCH  49  52
ATOM     52  OH  TYR A   6      -8.862  -3.097  -6.580  0.00  0.00    -0.506 OA
ATOM     53  HH  TYR A   6      -9.209  -2.917  -7.489  0.00  0.00    +0.292 HD
ENDBRANCH  49  52
ENDBRANCH  45  46
ENDBRANCH   5  45
ENDBRANCH   3   5
BRANCH   1  54
ATOM     54  CA  PHE A   5      -3.813  -6.062  -2.899  0.00  0.00    +0.153 C 
BRANCH  54  57
ATOM     55  C   ASP A   4      -2.455  -7.920  -2.105  0.00  0.00    +0.241 C 
ATOM     56  O   ASP A   4      -3.426  -8.320  -1.383  0.00  0.00    -0.273 OA
ATOM     57  N   PHE A   5      -2.558  -6.836  -2.919  0.00  0.00    -0.297 N 
ATOM     58  H   PHE A   5      -1.771  -6.559  -3.540  0.00  0.00    +0.150 HD
BRANCH  55  59
ATOM     59  CA  ASP A   4      -1.156  -8.736  -2.176  0.00  0.00    +0.160 C 
BRANCH  59  62
ATOM     60  C   TYR A   3       0.384  -6.939  -1.577  0.00  0.00    +0.241 C 
ATOM     61  O   TYR A   3      -0.220  -6.676  -0.515  0.00  0.00    -0.273 OA
ATOM     62  N   ASP A   4      -0.032  -7.897  -2.440  0.00  0.00    -0.297 N 
ATOM     63  H   ASP A   4       0.489  -8.026  -3.331  0.00  0.00    +0.150 HD
BRANCH  60  64
ATOM     64  CA  TYR A   3       1.577  -6.112  -2.006  0.00  0.00    +0.153 C 
BRANCH  64  66
ATOM     65  C   THR A   2       2.457  -3.965  -1.243  0.00  0.00    +0.243 C 
ATOM     66  N   TYR A   3       1.790  -5.045  -0.988  0.00  0.00    -0.297 N 
ATOM     67  H   TYR A   3       1.388  -5.173  -0.037  0.00  0.00    +0.150 HD
ATOM     68  O   THR A   2       3.098  -3.714  -2.258  0.00  0.00    -0.273 OA
BRANCH  65  69
ATOM     69  CA  THR A   2       2.536  -2.971  -0.064  0.00  0.00    +0.176 C 
BRANCH  69  72
ATOM     70  C   MET A   1       2.478  -4.335   1.955  0.00  0.00    +0.238 C 
ATOM     71  O   MET A   1       1.291  -4.631   1.767  0.00  0.00    -0.274 OA
ATOM     72  N   THR A   2       3.157  -3.581   1.121  0.00  0.00    -0.295 N 
ATOM     73  H   THR A   2       4.166  -3.410   1.305  0.00  0.00    +0.150 HD
BRANCH  70  74
ATOM     74  CA  MET A   1       3.259  -4.884   3.159  0.00  0.00    +0.146 C 
BRANCH  74  75
ATOM     75  N   MET A   1       3.523  -3.741   4.063  0.00  0.00    -0.238 NA
ATOM     76  H   MET A   1       2.897  -3.612   4.884  0.00  0.00    +0.142 HD
ENDBRANCH  74  75
BRANCH  74  77
ATOM     77  CB  MET A   1       2.394  -5.921   3.916  0.00  0.00    +0.038 C 
BRANCH  77  78
ATOM     78  CG  MET A   1       3.175  -6.517   5.166  0.00  0.00    +0.060 C 
BRANCH  78  79
ATOM     79  SD  MET A   1       2.192  -7.633   6.130  0.00  0.00    -0.139 S 
ATOM     80  CE  MET A   1       1.612  -8.853   4.959  0.00  0.00    +0.069 C 
ENDBRANCH  78  79
ENDBRANCH  77  78
ENDBRANCH  74  77
ENDBRANCH  70  74
ENDBRANCH  69  72
BRANCH  69  81
ATOM     81  CB  THR A   2       3.323  -1.665  -0.441  0.00  0.00    +0.137 C 
ATOM     82  CG2 THR A   2       3.041  -0.623   0.660  0.00  0.00    +0.034 C 
BRANCH  81  83
ATOM     83  OG1 THR A   2       4.720  -1.939  -0.367  0.00  0.00    -0.382 OA
ATOM     84  HG1 THR A   2       4.947  -2.665  -1.001  0.00  0.00    +0.210 HD
ENDBRANCH  81  83
ENDBRANCH  69  81
ENDBRANCH  65  69
ENDBRANCH  64  66
BRANCH  64  85
ATOM     85  CB  TYR A   3       2.874  -6.943  -2.267  0.00  0.00    +0.055 C 
BRANCH  85  86
ATOM     86  CG  TYR A   3       3.600  -7.328  -0.989  0.00  0.00    -0.020 A 
ATOM     87  CD2 TYR A   3       2.983  -8.184  -0.044  0.00  0.00    -0.001 A 
ATOM     88  CE2 TYR A   3       3.624  -8.590   1.163  0.00  0.00    +0.036 A 
ATOM     89  CZ  TYR A   3       4.866  -8.035   1.412  0.00  0.00    +0.134 A 
ATOM     90  CE1 TYR A   3       5.475  -7.109   0.534  0.00  0.00    +0.036 A 
ATOM     91  CD1 TYR A   3       4.833  -6.781  -0.713  0.00  0.00    -0.001 A 
BRANCH  89  92
ATOM     92  OH  TYR A   3       5.548  -8.354   2.626  0.00  0.00    -0.506 OA
ATOM     93  HH  TYR A   3       5.014  -9.009   3.141  0.00  0.00    +0.292 HD
ENDBRANCH  89  92
ENDBRANCH  85  86
ENDBRANCH  64  85
ENDBRANCH  60  64
ENDBRANCH  59  62
BRANCH  59  94
ATOM     94  CB  ASP A   4      -0.981  -9.555  -0.829  0.00  0.00    +0.143 C 
BRANCH  94  95
ATOM     95  CG  ASP A   4       0.120 -10.537  -0.903  0.00  0.00    +0.367 C 
ATOM     96  OD2 ASP A   4       0.595 -10.958   0.200  0.00  0.00    -0.246 OA
ATOM     97  OD1 ASP A   4       0.605 -10.832  -1.968  0.00  0.00    -0.246 OA
ENDBRANCH  94  95
ENDBRANCH  59  94
ENDBRANCH  55  59
ENDBRANCH  54  57
BRANCH  54  98
ATOM     98  CB  PHE A   5      -3.546  -4.741  -3.627  0.00  0.00    +0.055 C 
BRANCH  98  99
ATOM     99  CG  PHE A   5      -2.495  -3.856  -2.956  0.00  0.00    -0.020 A 
ATOM    100  CD2 PHE A   5      -2.230  -3.900  -1.581  0.00  0.00    -0.004 A 
ATOM    101  CE2 PHE A   5      -1.219  -3.061  -1.012  0.00  0.00    -0.000 A 
ATOM    102  CZ  PHE A   5      -0.456  -2.225  -1.909  0.00  0.00    -0.000 A 
ATOM    103  CE1 PHE A   5      -0.762  -2.169  -3.256  0.00  0.00    -0.000 A 
ATOM    104  CD1 PHE A   5      -1.746  -3.013  -3.765  0.00  0.00    -0.004 A 
ENDBRANCH  98  99
ENDBRANCH  54  98
ENDBRANCH   1  54
TORSDOF 39
REMARK  Name = ../refined-set-2016/3arr/3arr_pocket.pdb
REMARK  141 active torsions:
REMARK  status: ('A' for Active; 'I' for Inactive)
REMARK    1  A    between atoms: _1  and  _3
REMARK    2  A    between atoms: _3  and  _4
REMARK    3  A    between atoms: _3  and  _6
REMARK    4  A    between atoms: _6  and  _7
REMARK    5  A    between atoms: _17  and  _19
REMARK    6  A    between atoms: _19  and  _20
REMARK    7  A    between atoms: _19  and  _22
REMARK    8  A    between atoms: _22  and  _23
REMARK    9  A    between atoms: _26  and  _28
REMARK   10  A    between atoms: _28  and  _29
REMARK   11  A    between atoms: _28  and  _31
REMARK   12  A    between atoms: _31  and  _32
REMARK   13  A    between atoms: _32  and  _33
REMARK   14  A    between atoms: _36  and  _38
REMARK   15  A    between atoms: _38  and  _39
REMARK   16  A    between atoms: _38  and  _41
REMARK   17  A    between atoms: _41  and  _42
REMARK   18  A    between atoms: _48  and  _50
REMARK   19  A    between atoms: _50  and  _51
REMARK   20  A    between atoms: _53  and  _55
REMARK   21  A    between atoms: _55  and  _56
REMARK   22  A    between atoms: _58  and  _60
REMARK   23  A    between atoms: _60  and  _61
REMARK   24  A    between atoms: _63  and  _65
REMARK   25  A    between atoms: _65  and  _66
REMARK   26  A    between atoms: _69  and  _71
REMARK   27  A    between atoms: _71  and  _72
REMARK   28  A    between atoms: _71  and  _74
REMARK   29  A    between atoms: _74  and  _75
REMARK   30  A    between atoms: _78  and  _80
REMARK   31  A    between atoms: _80  and  _81
REMARK   32  A    between atoms: _83  and  _85
REMARK   33  A    between atoms: _85  and  _86
REMARK   34  A    between atoms: _85  and  _88
REMARK   35  A    between atoms: _91  and  _93
REMARK   36  A    between atoms: _93  and  _94
REMARK   37  A    between atoms: _96  and  _98
REMARK   38  A    between atoms: _98  and  _99
REMARK   39  A    between atoms: _98  and  _101
REMARK   40  A    between atoms: _101  and  _102
REMARK   41  A    between atoms: _107  and  _108
REMARK   42  A    between atoms: _110  and  _112
REMARK   43  A    between atoms: _112  and  _113
REMARK   44  A    between atoms: _112  and  _115
REMARK   45  A    between atoms: _115  and  _116
REMARK   46  A    between atoms: _119  and  _121
REMARK   47  A    between atoms: _121  and  _122
REMARK   48  A    between atoms: _121  and  _124
REMARK   49  A    between atoms: _124  and  _125
REMARK   50  A    between atoms: _125  and  _126
REMARK   51  A    between atoms: _126  and  _127
REMARK   52  A    between atoms: _127  and  _128
REMARK   53  A    between atoms: _132  and  _134
REMARK   54  A    between atoms: _134  and  _135
REMARK   55  A    between atoms: _134  and  _137
REMARK   56  A    between atoms: _137  and  _138
REMARK   57  A    between atoms: _141  and  _143
REMARK   58  A    between atoms: _143  and  _144
REMARK   59  A    between atoms: _143  and  _146
REMARK   60  A    between atoms: _146  and  _147
REMARK   61  A    between atoms: _147  and  _148
REMARK   62  A    between atoms: _150  and  _152
REMARK   63  A    between atoms: _152  and  _153
REMARK   64  A    between atoms: _152  and  _155
REMARK   65  A    between atoms: _155  and  _156
REMARK   66  A    between atoms: _159  and  _161
REMARK   67  A    between atoms: _161  and  _162
REMARK   68  A    between atoms: _161  and  _164
REMARK   69  A    between atoms: _164  and  _165
REMARK   70  A    between atoms: _170  and  _171
REMARK   71  A    between atoms: _173  and  _175
REMARK   72  A    between atoms: _175  and  _176
REMARK   73  A    between atoms: _175  and  _178
REMARK   74  A    between atoms: _178  and  _179
REMARK   75  A    between atoms: _182  and  _184
REMARK   76  A    between atoms: _184  and  _185
REMARK   77  A    between atoms: _184  and  _187
REMARK   78  A    between atoms: _187  and  _188
REMARK   79  A    between atoms: _194  and  _196
REMARK   80  A    between atoms: _196  and  _197
REMARK   81  A    between atoms: _196  and  _199
REMARK   82  A    between atoms: _199  and  _200
REMARK   83  A    between atoms: _205  and  _206
REMARK   84  A    between atoms: _208  and  _210
REMARK   85  A    between atoms: _210  and  _211
REMARK   86  A    between atoms: _213  and  _215
REMARK   87  A    between atoms: _215  and  _216
REMARK   88  A    between atoms: _218  and  _220
REMARK   89  A    between atoms: _220  and  _221
REMARK   90  A    between atoms: _220  and  _223
REMARK   91  A    between atoms: _223  and  _224
REMARK   92  A    between atoms: _234  and  _236
REMARK   93  A    between atoms: _236  and  _237
REMARK   94  A    between atoms: _236  and  _239
REMARK   95  A    between atoms: _239  and  _240
REMARK   96  A    between atoms: _245  and  _247
REMARK   97  A    between atoms: _247  and  _248
REMARK   98  A    between atoms: _247  and  _250
REMARK   99  A    between atoms: _250  and  _251
REMARK  100  A    between atoms: _251  and  _252
REMARK  101  A    between atoms: _257  and  _259
REMARK  102  A    between atoms: _259  and  _260
REMARK  103  A    between atoms: _263  and  _265
REMARK  104  A    between atoms: _265  and  _266
REMARK  105  A    between atoms: _265  and  _268
REMARK  106  A    between atoms: _268  and  _269
REMARK  107  A    between atoms: _274  and  _275
REMARK  108  A    between atoms: _277  and  _279
REMARK  109  A    between atoms: _279  and  _280
REMARK  110  A    between atoms: _279  and  _282
REMARK  111  A    between atoms: _282  and  _283
REMARK  112  A    between atoms: _286  and  _288
REMARK  113  A    between atoms: _288  and  _289
REMARK  114  A    between atoms: _288  and  _291
REMARK  115  A    between atoms: _291  and  _292
REMARK  116  A    between atoms: _297  and  _298
REMARK  117  A    between atoms: _300  and  _302
REMARK  118  A    between atoms: _302  and  _303
REMARK  119  A    between atoms: _302  and  _305
REMARK  120  A    between atoms: _305  and  _306
REMARK  121  A    between atoms: _306  and  _307
REMARK  122  A    between atoms: _307  and  _308
REMARK  123  A    between atoms: _317  and  _319
REMARK  124  A    between atoms: _319  and  _320
REMARK  125  A    between atoms: _319  and  _322
REMARK  126  A    between atoms: _322  and  _323
REMARK  127  A    between atoms: _323  and  _324
REMARK  128  A    between atoms: _324  and  _325
REMARK  129  A    between atoms: _325  and  _326
REMARK  130  A    between atoms: _330  and  _332
REMARK  131  A    between atoms: _332  and  _333
REMARK  132  A    between atoms: _332  and  _335
REMARK  133  A    between atoms: _335  and  _336
REMARK  134  A    between atoms: _336  and  _337
REMARK  135  A    between atoms: _340  and  _342
REMARK  136  A    between atoms: _342  and  _343
REMARK  137  A    between atoms: _342  and  _345
REMARK  138  A    between atoms: _348  and  _350
REMARK  139  A    between atoms: _350  and  _351
REMARK  140  A    between atoms: _350  and  _353
REMARK  141  A    between atoms: _353  and  _354
REMARK                            x       y       z     vdW  Elec       q    Type
REMARK                         _______ _______ _______ _____ _____    ______ ____
ROOT
ATOM      1  CB  GLN A   1      -1.028  -7.963  -6.423  0.00  0.00    +0.035 C 
ENDROOT
BRANCH   1   2
ATOM      2  CA  GLN A   1      -1.366  -6.466  -6.534  0.00  0.00    +0.134 C 
BRANCH   2   3
ATOM      3  N   GLN A   1      -1.606  -6.021  -7.912  0.00  0.00    -0.239 NA
ATOM      4  H   GLN A   1      -1.210  -6.562  -8.707  0.00  0.00    +0.142 HD
ENDBRANCH   2   3
BRANCH   2   5
ATOM      5  C   GLN A   1      -0.389  -5.612  -5.810  0.00  0.00    +0.224 C 
ATOM      6  O   GLN A   1      -0.326  -5.760  -4.571  0.00  0.00    -0.287 OA
ENDBRANCH   2   5
ENDBRANCH   1   2
BRANCH   1   7
ATOM      7  CG  GLN A   1       0.364  -8.307  -7.050  0.00  0.00    +0.087 C 
BRANCH   7   8
ATOM      8  CD  GLN A   1       1.324  -9.019  -6.093  0.00  0.00    +0.219 C 
ATOM      9  OE1 GLN A   1       1.191  -8.975  -4.872  0.00  0.00    -0.275 OA
ATOM     10  NE2 GLN A   1       2.260  -9.720  -6.682  0.00  0.00    -0.329 N 
ATOM     11 HE21 GLN A   1       2.932 -10.272  -6.112  0.00  0.00    +0.145 HD
ATOM     12 HE22 GLN A   1       2.331  -9.725  -7.720  0.00  0.00    +0.145 HD
ENDBRANCH   7   8
ENDBRANCH   1   7
TORSDOF 5
REMARK  Name = ../refined-set-2016/3arr/3arr_pocket.pdb
REMARK  141 active torsions:
REMARK  status: ('A' for Active; 'I' for Inactive)
REMARK    1  A    between atoms: _1  and  _3
REMARK    2  A    between atoms: _3  and  _4
REMARK    3  A    between atoms: _3  and  _6
REMARK    4  A    between atoms: _6  and  _7
REMARK    5  A    between atoms: _17  and  _19
REMARK    6  A    between atoms: _19  and  _20
REMARK    7  A    between atoms: _19  and  _22
REMARK    8  A    between atoms: _22  and  _23
REMARK    9  A    between atoms: _26  and  _28
REMARK   10  A    between atoms: _28  and  _29
REMARK   11  A    between atoms: _28  and  _31
REMARK   12  A    between atoms: _31  and  _32
REMARK   13  A    between atoms: _32  and  _33
REMARK   14  A    between atoms: _36  and  _38
REMARK   15  A    between atoms: _38  and  _39
REMARK   16  A    between atoms: _38  and  _41
REMARK   17  A    between atoms: _41  and  _42
REMARK   18  A    between atoms: _48  and  _50
REMARK   19  A    between atoms: _50  and  _51
REMARK   20  A    between atoms: _53  and  _55
REMARK   21  A    between atoms: _55  and  _56
REMARK   22  A    between atoms: _58  and  _60
REMARK   23  A    between atoms: _60  and  _61
REMARK   24  A    between atoms: _63  and  _65
REMARK   25  A    between atoms: _65  and  _66
REMARK   26  A    between atoms: _69  and  _71
REMARK   27  A    between atoms: _71  and  _72
REMARK   28  A    between atoms: _71  and  _74
REMARK   29  A    between atoms: _74  and  _75
REMARK   30  A    between atoms: _78  and  _80
REMARK   31  A    between atoms: _80  and  _81
REMARK   32  A    between atoms: _83  and  _85
REMARK   33  A    between atoms: _85  and  _86
REMARK   34  A    between atoms: _85  and  _88
REMARK   35  A    between atoms: _91  and  _93
REMARK   36  A    between atoms: _93  and  _94
REMARK   37  A    between atoms: _96  and  _98
REMARK   38  A    between atoms: _98  and  _99
REMARK   39  A    between atoms: _98  and  _101
REMARK   40  A    between atoms: _101  and  _102
REMARK   41  A    between atoms: _107  and  _108
REMARK   42  A    between atoms: _110  and  _112
REMARK   43  A    between atoms: _112  and  _113
REMARK   44  A    between atoms: _112  and  _115
REMARK   45  A    between atoms: _115  and  _116
REMARK   46  A    between atoms: _119  and  _121
REMARK   47  A    between atoms: _121  and  _122
REMARK   48  A    between atoms: _121  and  _124
REMARK   49  A    between atoms: _124  and  _125
REMARK   50  A    between atoms: _125  and  _126
REMARK   51  A    between atoms: _126  and  _127
REMARK   52  A    between atoms: _127  and  _128
REMARK   53  A    between atoms: _132  and  _134
REMARK   54  A    between atoms: _134  and  _135
REMARK   55  A    between atoms: _134  and  _137
REMARK   56  A    between atoms: _137  and  _138
REMARK   57  A    between atoms: _141  and  _143
REMARK   58  A    between atoms: _143  and  _144
REMARK   59  A    between atoms: _143  and  _146
REMARK   60  A    between atoms: _146  and  _147
REMARK   61  A    between atoms: _147  and  _148
REMARK   62  A    between atoms: _150  and  _152
REMARK   63  A    between atoms: _152  and  _153
REMARK   64  A    between atoms: _152  and  _155
REMARK   65  A    between atoms: _155  and  _156
REMARK   66  A    between atoms: _159  and  _161
REMARK   67  A    between atoms: _161  and  _162
REMARK   68  A    between atoms: _161  and  _164
REMARK   69  A    between atoms: _164  and  _165
REMARK   70  A    between atoms: _170  and  _171
REMARK   71  A    between atoms: _173  and  _175
REMARK   72  A    between atoms: _175  and  _176
REMARK   73  A    between atoms: _175  and  _178
REMARK   74  A    between atoms: _178  and  _179
REMARK   75  A    between atoms: _182  and  _184
REMARK   76  A    between atoms: _184  and  _185
REMARK   77  A    between atoms: _184  and  _187
REMARK   78  A    between atoms: _187  and  _188
REMARK   79  A    between atoms: _194  and  _196
REMARK   80  A    between atoms: _196  and  _197
REMARK   81  A    between atoms: _196  and  _199
REMARK   82  A    between atoms: _199  and  _200
REMARK   83  A    between atoms: _205  and  _206
REMARK   84  A    between atoms: _208  and  _210
REMARK   85  A    between atoms: _210  and  _211
REMARK   86  A    between atoms: _213  and  _215
REMARK   87  A    between atoms: _215  and  _216
REMARK   88  A    between atoms: _218  and  _220
REMARK   89  A    between atoms: _220  and  _221
REMARK   90  A    between atoms: _220  and  _223
REMARK   91  A    between atoms: _223  and  _224
REMARK   92  A    between atoms: _234  and  _236
REMARK   93  A    between atoms: _236  and  _237
REMARK   94  A    between atoms: _236  and  _239
REMARK   95  A    between atoms: _239  and  _240
REMARK   96  A    between atoms: _245  and  _247
REMARK   97  A    between atoms: _247  and  _248
REMARK   98  A    between atoms: _247  and  _250
REMARK   99  A    between atoms: _250  and  _251
REMARK  100  A    between atoms: _251  and  _252
REMARK  101  A    between atoms: _257  and  _259
REMARK  102  A    between atoms: _259  and  _260
REMARK  103  A    between atoms: _263  and  _265
REMARK  104  A    between atoms: _265  and  _266
REMARK  105  A    between atoms: _265  and  _268
REMARK  106  A    between atoms: _268  and  _269
REMARK  107  A    between atoms: _274  and  _275
REMARK  108  A    between atoms: _277  and  _279
REMARK  109  A    between atoms: _279  and  _280
REMARK  110  A    between atoms: _279  and  _282
REMARK  111  A    between atoms: _282  and  _283
REMARK  112  A    between atoms: _286  and  _288
REMARK  113  A    between atoms: _288  and  _289
REMARK  114  A    between atoms: _288  and  _291
REMARK  115  A    between atoms: _291  and  _292
REMARK  116  A    between atoms: _297  and  _298
REMARK  117  A    between atoms: _300  and  _302
REMARK  118  A    between atoms: _302  and  _303
REMARK  119  A    between atoms: _302  and  _305
REMARK  120  A    between atoms: _305  and  _306
REMARK  121  A    between atoms: _306  and  _307
REMARK  122  A    between atoms: _307  and  _308
REMARK  123  A    between atoms: _317  and  _319
REMARK  124  A    between atoms: _319  and  _320
REMARK  125  A    between atoms: _319  and  _322
REMARK  126  A    between atoms: _322  and  _323
REMARK  127  A    between atoms: _323  and  _324
REMARK  128  A    between atoms: _324  and  _325
REMARK  129  A    between atoms: _325  and  _326
REMARK  130  A    between atoms: _330  and  _332
REMARK  131  A    between atoms: _332  and  _333
REMARK  132  A    between atoms: _332  and  _335
REMARK  133  A    between atoms: _335  and  _336
REMARK  134  A    between atoms: _336  and  _337
REMARK  135  A    between atoms: _340  and  _342
REMARK  136  A    between atoms: _342  and  _343
REMARK  137  A    between atoms: _342  and  _345
REMARK  138  A    between atoms: _348  and  _350
REMARK  139  A    between atoms: _350  and  _351
REMARK  140  A    between atoms: _350  and  _353
REMARK  141  A    between atoms: _353  and  _354
REMARK                            x       y       z     vdW  Elec       q    Type
REMARK                         _______ _______ _______ _____ _____    ______ ____
ROOT
ATOM      1  CA  TYR A   2      -5.758  -0.830  -2.023  0.00  0.00    +0.153 C 
ENDROOT
BRANCH   1   4
ATOM      2  C   ALA A   1      -7.220   1.092  -2.187  0.00  0.00    +0.238 C 
ATOM      3  O   ALA A   1      -6.432   1.820  -1.591  0.00  0.00    -0.274 OA
ATOM      4  N   TYR A   2      -7.027  -0.212  -2.430  0.00  0.00    -0.297 N 
ATOM      5  H   TYR A   2      -7.764  -0.777  -2.899  0.00  0.00    +0.150 HD
BRANCH   2   6
ATOM      6  CA  ALA A   1      -8.537   1.625  -2.698  0.00  0.00    +0.145 C 
ATOM      7  CB  ALA A   1      -8.380   1.824  -4.192  0.00  0.00    +0.028 C 
BRANCH   6   8
ATOM      8  N   ALA A   1      -9.002   2.834  -2.025  0.00  0.00    -0.238 NA
ATOM      9  H   ALA A   1      -9.162   3.706  -2.569  0.00  0.00    +0.142 HD
ENDBRANCH   6   8
ENDBRANCH   2   6
ENDBRANCH   1   4
BRANCH   1  10
ATOM     10  C   TYR A   2      -4.620  -0.479  -3.012  0.00  0.00    +0.241 C 
ATOM     11  N   THR A   3      -3.820   0.556  -2.683  0.00  0.00    -0.296 N 
ATOM     12  H   THR A   3      -4.112   1.177  -1.902  0.00  0.00    +0.150 HD
ATOM     13  O   TYR A   2      -4.537  -1.082  -4.076  0.00  0.00    -0.273 OA
BRANCH  11  14
ATOM     14  CA  THR A   3      -2.573   0.846  -3.364  0.00  0.00    +0.164 C 
BRANCH  14  15
ATOM     15  C   THR A   3      -1.490   1.204  -2.347  0.00  0.00    +0.229 C 
ATOM     16  O   THR A   3      -1.791   1.433  -1.170  0.00  0.00    -0.286 OA
ENDBRANCH  14  15
BRANCH  14  17
ATOM     17  CB  THR A   3      -2.666   2.141  -4.287  0.00  0.00    +0.136 C 
ATOM     18  CG2 THR A   3      -3.898   2.063  -5.211  0.00  0.00    +0.034 C 
BRANCH  17  19
ATOM     19  OG1 THR A   3      -2.831   3.305  -3.430  0.00  0.00    -0.382 OA
ATOM     20  HG1 THR A   3      -2.891   4.120  -3.990  0.00  0.00    +0.210 HD
ENDBRANCH  17  19
ENDBRANCH  14  17
ENDBRANCH  11  14
ENDBRANCH   1  10
BRANCH   1  21
ATOM     21  CB  TYR A   2      -5.895  -2.336  -1.938  0.00  0.00    +0.055 C 
BRANCH  21  22
ATOM     22  CG  TYR A   2      -6.630  -2.857  -0.721  0.00  0.00    -0.020 A 
ATOM     23  CD2 TYR A   2      -7.135  -2.014   0.282  0.00  0.00    -0.001 A 
ATOM     24  CE2 TYR A   2      -7.704  -2.532   1.461  0.00  0.00    +0.036 A 
ATOM     25  CZ  TYR A   2      -7.795  -3.917   1.640  0.00  0.00    +0.134 A 
ATOM     26  CE1 TYR A   2      -7.338  -4.783   0.613  0.00  0.00    +0.036 A 
ATOM     27  CD1 TYR A   2      -6.714  -4.228  -0.505  0.00  0.00    -0.001 A 
BRANCH  25  28
ATOM     28  OH  TYR A   2      -8.352  -4.442   2.793  0.00  0.00    -0.506 OA
ATOM     29  HH  TYR A   2      -8.614  -3.703   3.397  0.00  0.00    +0.292 HD
ENDBRANCH  25  28
ENDBRANCH  21  22
ENDBRANCH   1  21
TORSDOF 11
REMARK  Name = ../refined-set-2016/3arr/3arr_pocket.pdb
REMARK  141 active torsions:
REMARK  status: ('A' for Active; 'I' for Inactive)
REMARK    1  A    between atoms: _1  and  _3
REMARK    2  A    between atoms: _3  and  _4
REMARK    3  A    between atoms: _3  and  _6
REMARK    4  A    between atoms: _6  and  _7
REMARK    5  A    between atoms: _17  and  _19
REMARK    6  A    between atoms: _19  and  _20
REMARK    7  A    between atoms: _19  and  _22
REMARK    8  A    between atoms: _22  and  _23
REMARK    9  A    between atoms: _26  and  _28
REMARK   10  A    between atoms: _28  and  _29
REMARK   11  A    between atoms: _28  and  _31
REMARK   12  A    between atoms: _31  and  _32
REMARK   13  A    between atoms: _32  and  _33
REMARK   14  A    between atoms: _36  and  _38
REMARK   15  A    between atoms: _38  and  _39
REMARK   16  A    between atoms: _38  and  _41
REMARK   17  A    between atoms: _41  and  _42
REMARK   18  A    between atoms: _48  and  _50
REMARK   19  A    between atoms: _50  and  _51
REMARK   20  A    between atoms: _53  and  _55
REMARK   21  A    between atoms: _55  and  _56
REMARK   22  A    between atoms: _58  and  _60
REMARK   23  A    between atoms: _60  and  _61
REMARK   24  A    between atoms: _63  and  _65
REMARK   25  A    between atoms: _65  and  _66
REMARK   26  A    between atoms: _69  and  _71
REMARK   27  A    between atoms: _71  and  _72
REMARK   28  A    between atoms: _71  and  _74
REMARK   29  A    between atoms: _74  and  _75
REMARK   30  A    between atoms: _78  and  _80
REMARK   31  A    between atoms: _80  and  _81
REMARK   32  A    between atoms: _83  and  _85
REMARK   33  A    between atoms: _85  and  _86
REMARK   34  A    between atoms: _85  and  _88
REMARK   35  A    between atoms: _91  and  _93
REMARK   36  A    between atoms: _93  and  _94
REMARK   37  A    between atoms: _96  and  _98
REMARK   38  A    between atoms: _98  and  _99
REMARK   39  A    between atoms: _98  and  _101
REMARK   40  A    between atoms: _101  and  _102
REMARK   41  A    between atoms: _107  and  _108
REMARK   42  A    between atoms: _110  and  _112
REMARK   43  A    between atoms: _112  and  _113
REMARK   44  A    between atoms: _112  and  _115
REMARK   45  A    between atoms: _115  and  _116
REMARK   46  A    between atoms: _119  and  _121
REMARK   47  A    between atoms: _121  and  _122
REMARK   48  A    between atoms: _121  and  _124
REMARK   49  A    between atoms: _124  and  _125
REMARK   50  A    between atoms: _125  and  _126
REMARK   51  A    between atoms: _126  and  _127
REMARK   52  A    between atoms: _127  and  _128
REMARK   53  A    between atoms: _132  and  _134
REMARK   54  A    between atoms: _134  and  _135
REMARK   55  A    between atoms: _134  and  _137
REMARK   56  A    between atoms: _137  and  _138
REMARK   57  A    between atoms: _141  and  _143
REMARK   58  A    between atoms: _143  and  _144
REMARK   59  A    between atoms: _143  and  _146
REMARK   60  A    between atoms: _146  and  _147
REMARK   61  A    between atoms: _147  and  _148
REMARK   62  A    between atoms: _150  and  _152
REMARK   63  A    between atoms: _152  and  _153
REMARK   64  A    between atoms: _152  and  _155
REMARK   65  A    between atoms: _155  and  _156
REMARK   66  A    between atoms: _159  and  _161
REMARK   67  A    between atoms: _161  and  _162
REMARK   68  A    between atoms: _161  and  _164
REMARK   69  A    between atoms: _164  and  _165
REMARK   70  A    between atoms: _170  and  _171
REMARK   71  A    between atoms: _173  and  _175
REMARK   72  A    between atoms: _175  and  _176
REMARK   73  A    between atoms: _175  and  _178
REMARK   74  A    between atoms: _178  and  _179
REMARK   75  A    between atoms: _182  and  _184
REMARK   76  A    between atoms: _184  and  _185
REMARK   77  A    between atoms: _184  and  _187
REMARK   78  A    between atoms: _187  and  _188
REMARK   79  A    between atoms: _194  and  _196
REMARK   80  A    between atoms: _196  and  _197
REMARK   81  A    between atoms: _196  and  _199
REMARK   82  A    between atoms: _199  and  _200
REMARK   83  A    between atoms: _205  and  _206
REMARK   84  A    between atoms: _208  and  _210
REMARK   85  A    between atoms: _210  and  _211
REMARK   86  A    between atoms: _213  and  _215
REMARK   87  A    between atoms: _215  and  _216
REMARK   88  A    between atoms: _218  and  _220
REMARK   89  A    between atoms: _220  and  _221
REMARK   90  A    between atoms: _220  and  _223
REMARK   91  A    between atoms: _223  and  _224
REMARK   92  A    between atoms: _234  and  _236
REMARK   93  A    between atoms: _236  and  _237
REMARK   94  A    between atoms: _236  and  _239
REMARK   95  A    between atoms: _239  and  _240
REMARK   96  A    between atoms: _245  and  _247
REMARK   97  A    between atoms: _247  and  _248
REMARK   98  A    between atoms: _247  and  _250
REMARK   99  A    between atoms: _250  and  _251
REMARK  100  A    between atoms: _251  and  _252
REMARK  101  A    between atoms: _257  and  _259
REMARK  102  A    between atoms: _259  and  _260
REMARK  103  A    between atoms: _263  and  _265
REMARK  104  A    between atoms: _265  and  _266
REMARK  105  A    between atoms: _265  and  _268
REMARK  106  A    between atoms: _268  and  _269
REMARK  107  A    between atoms: _274  and  _275
REMARK  108  A    between atoms: _277  and  _279
REMARK  109  A    between atoms: _279  and  _280
REMARK  110  A    between atoms: _279  and  _282
REMARK  111  A    between atoms: _282  and  _283
REMARK  112  A    between atoms: _286  and  _288
REMARK  113  A    between atoms: _288  and  _289
REMARK  114  A    between atoms: _288  and  _291
REMARK  115  A    between atoms: _291  and  _292
REMARK  116  A    between atoms: _297  and  _298
REMARK  117  A    between atoms: _300  and  _302
REMARK  118  A    between atoms: _302  and  _303
REMARK  119  A    between atoms: _302  and  _305
REMARK  120  A    between atoms: _305  and  _306
REMARK  121  A    between atoms: _306  and  _307
REMARK  122  A    between atoms: _307  and  _308
REMARK  123  A    between atoms: _317  and  _319
REMARK  124  A    between atoms: _319  and  _320
REMARK  125  A    between atoms: _319  and  _322
REMARK  126  A    between atoms: _322  and  _323
REMARK  127  A    between atoms: _323  and  _324
REMARK  128  A    between atoms: _324  and  _325
REMARK  129  A    between atoms: _325  and  _326
REMARK  130  A    between atoms: _330  and  _332
REMARK  131  A    between atoms: _332  and  _333
REMARK  132  A    between atoms: _332  and  _335
REMARK  133  A    between atoms: _335  and  _336
REMARK  134  A    between atoms: _336  and  _337
REMARK  135  A    between atoms: _340  and  _342
REMARK  136  A    between atoms: _342  and  _343
REMARK  137  A    between atoms: _342  and  _345
REMARK  138  A    between atoms: _348  and  _350
REMARK  139  A    between atoms: _350  and  _351
REMARK  140  A    between atoms: _350  and  _353
REMARK  141  A    between atoms: _353  and  _354
REMARK                            x       y       z     vdW  Elec       q    Type
REMARK                         _______ _______ _______ _____ _____    ______ ____
ROOT
ATOM      1  CG  TYR A   1       5.110 -13.032  -5.114  0.00  0.00    -0.020 A 
ATOM      2  CD2 TYR A   1       5.847 -12.367  -4.141  0.00  0.00    -0.001 A 
ATOM      3  CE2 TYR A   1       5.220 -11.560  -3.195  0.00  0.00    +0.036 A 
ATOM      4  CZ  TYR A   1       3.845 -11.463  -3.223  0.00  0.00    +0.134 A 
ATOM      5  CE1 TYR A   1       3.054 -12.174  -4.156  0.00  0.00    +0.036 A 
ATOM      6  CD1 TYR A   1       3.729 -12.909  -5.120  0.00  0.00    -0.001 A 
ENDROOT
BRANCH   4   7
ATOM      7  OH  TYR A   1       3.250 -10.668  -2.253  0.00  0.00    -0.506 OA
ATOM      8  HH  TYR A   1       2.663 -11.227  -1.685  0.00  0.00    +0.292 HD
ENDBRANCH   4   7
BRANCH   1   9
ATOM      9  CB  TYR A   1       5.875 -13.814  -6.151  0.00  0.00    +0.051 C 
BRANCH   9  10
ATOM     10  CA  TYR A   1       6.368 -12.850  -7.295  0.00  0.00    +0.137 C 
BRANCH  10  11
ATOM     11  N   TYR A   1       7.237 -11.781  -6.773  0.00  0.00    -0.239 NA
ATOM     12  H   TYR A   1       6.832 -10.854  -6.530  0.00  0.00    +0.142 HD
ENDBRANCH  10  11
BRANCH  10  13
ATOM     13  C   TYR A   1       5.170 -12.161  -7.932  0.00  0.00    +0.224 C 
ATOM     14  O   TYR A   1       4.895 -10.959  -7.671  0.00  0.00    -0.287 OA
ENDBRANCH  10  13
ENDBRANCH   9  10
ENDBRANCH   1   9
TORSDOF 5
REMARK  Name = ../refined-set-2016/3arr/3arr_pocket.pdb
REMARK  141 active torsions:
REMARK  status: ('A' for Active; 'I' for Inactive)
REMARK    1  A    between atoms: _1  and  _3
REMARK    2  A    between atoms: _3  and  _4
REMARK    3  A    between atoms: _3  and  _6
REMARK    4  A    between atoms: _6  and  _7
REMARK    5  A    between atoms: _17  and  _19
REMARK    6  A    between atoms: _19  and  _20
REMARK    7  A    between atoms: _19  and  _22
REMARK    8  A    between atoms: _22  and  _23
REMARK    9  A    between atoms: _26  and  _28
REMARK   10  A    between atoms: _28  and  _29
REMARK   11  A    between atoms: _28  and  _31
REMARK   12  A    between atoms: _31  and  _32
REMARK   13  A    between atoms: _32  and  _33
REMARK   14  A    between atoms: _36  and  _38
REMARK   15  A    between atoms: _38  and  _39
REMARK   16  A    between atoms: _38  and  _41
REMARK   17  A    between atoms: _41  and  _42
REMARK   18  A    between atoms: _48  and  _50
REMARK   19  A    between atoms: _50  and  _51
REMARK   20  A    between atoms: _53  and  _55
REMARK   21  A    between atoms: _55  and  _56
REMARK   22  A    between atoms: _58  and  _60
REMARK   23  A    between atoms: _60  and  _61
REMARK   24  A    between atoms: _63  and  _65
REMARK   25  A    between atoms: _65  and  _66
REMARK   26  A    between atoms: _69  and  _71
REMARK   27  A    between atoms: _71  and  _72
REMARK   28  A    between atoms: _71  and  _74
REMARK   29  A    between atoms: _74  and  _75
REMARK   30  A    between atoms: _78  and  _80
REMARK   31  A    between atoms: _80  and  _81
REMARK   32  A    between atoms: _83  and  _85
REMARK   33  A    between atoms: _85  and  _86
REMARK   34  A    between atoms: _85  and  _88
REMARK   35  A    between atoms: _91  and  _93
REMARK   36  A    between atoms: _93  and  _94
REMARK   37  A    between atoms: _96  and  _98
REMARK   38  A    between atoms: _98  and  _99
REMARK   39  A    between atoms: _98  and  _101
REMARK   40  A    between atoms: _101  and  _102
REMARK   41  A    between atoms: _107  and  _108
REMARK   42  A    between atoms: _110  and  _112
REMARK   43  A    between atoms: _112  and  _113
REMARK   44  A    between atoms: _112  and  _115
REMARK   45  A    between atoms: _115  and  _116
REMARK   46  A    between atoms: _119  and  _121
REMARK   47  A    between atoms: _121  and  _122
REMARK   48  A    between atoms: _121  and  _124
REMARK   49  A    between atoms: _124  and  _125
REMARK   50  A    between atoms: _125  and  _126
REMARK   51  A    between atoms: _126  and  _127
REMARK   52  A    between atoms: _127  and  _128
REMARK   53  A    between atoms: _132  and  _134
REMARK   54  A    between atoms: _134  and  _135
REMARK   55  A    between atoms: _134  and  _137
REMARK   56  A    between atoms: _137  and  _138
REMARK   57  A    between atoms: _141  and  _143
REMARK   58  A    between atoms: _143  and  _144
REMARK   59  A    between atoms: _143  and  _146
REMARK   60  A    between atoms: _146  and  _147
REMARK   61  A    between atoms: _147  and  _148
REMARK   62  A    between atoms: _150  and  _152
REMARK   63  A    between atoms: _152  and  _153
REMARK   64  A    between atoms: _152  and  _155
REMARK   65  A    between atoms: _155  and  _156
REMARK   66  A    between atoms: _159  and  _161
REMARK   67  A    between atoms: _161  and  _162
REMARK   68  A    between atoms: _161  and  _164
REMARK   69  A    between atoms: _164  and  _165
REMARK   70  A    between atoms: _170  and  _171
REMARK   71  A    between atoms: _173  and  _175
REMARK   72  A    between atoms: _175  and  _176
REMARK   73  A    between atoms: _175  and  _178
REMARK   74  A    between atoms: _178  and  _179
REMARK   75  A    between atoms: _182  and  _184
REMARK   76  A    between atoms: _184  and  _185
REMARK   77  A    between atoms: _184  and  _187
REMARK   78  A    between atoms: _187  and  _188
REMARK   79  A    between atoms: _194  and  _196
REMARK   80  A    between atoms: _196  and  _197
REMARK   81  A    between atoms: _196  and  _199
REMARK   82  A    between atoms: _199  and  _200
REMARK   83  A    between atoms: _205  and  _206
REMARK   84  A    between atoms: _208  and  _210
REMARK   85  A    between atoms: _210  and  _211
REMARK   86  A    between atoms: _213  and  _215
REMARK   87  A    between atoms: _215  and  _216
REMARK   88  A    between atoms: _218  and  _220
REMARK   89  A    between atoms: _220  and  _221
REMARK   90  A    between atoms: _220  and  _223
REMARK   91  A    between atoms: _223  and  _224
REMARK   92  A    between atoms: _234  and  _236
REMARK   93  A    between atoms: _236  and  _237
REMARK   94  A    between atoms: _236  and  _239
REMARK   95  A    between atoms: _239  and  _240
REMARK   96  A    between atoms: _245  and  _247
REMARK   97  A    between atoms: _247  and  _248
REMARK   98  A    between atoms: _247  and  _250
REMARK   99  A    between atoms: _250  and  _251
REMARK  100  A    between atoms: _251  and  _252
REMARK  101  A    between atoms: _257  and  _259
REMARK  102  A    between atoms: _259  and  _260
REMARK  103  A    between atoms: _263  and  _265
REMARK  104  A    between atoms: _265  and  _266
REMARK  105  A    between atoms: _265  and  _268
REMARK  106  A    between atoms: _268  and  _269
REMARK  107  A    between atoms: _274  and  _275
REMARK  108  A    between atoms: _277  and  _279
REMARK  109  A    between atoms: _279  and  _280
REMARK  110  A    between atoms: _279  and  _282
REMARK  111  A    between atoms: _282  and  _283
REMARK  112  A    between atoms: _286  and  _288
REMARK  113  A    between atoms: _288  and  _289
REMARK  114  A    between atoms: _288  and  _291
REMARK  115  A    between atoms: _291  and  _292
REMARK  116  A    between atoms: _297  and  _298
REMARK  117  A    between atoms: _300  and  _302
REMARK  118  A    between atoms: _302  and  _303
REMARK  119  A    between atoms: _302  and  _305
REMARK  120  A    between atoms: _305  and  _306
REMARK  121  A    between atoms: _306  and  _307
REMARK  122  A    between atoms: _307  and  _308
REMARK  123  A    between atoms: _317  and  _319
REMARK  124  A    between atoms: _319  and  _320
REMARK  125  A    between atoms: _319  and  _322
REMARK  126  A    between atoms: _322  and  _323
REMARK  127  A    between atoms: _323  and  _324
REMARK  128  A    between atoms: _324  and  _325
REMARK  129  A    between atoms: _325  and  _326
REMARK  130  A    between atoms: _330  and  _332
REMARK  131  A    between atoms: _332  and  _333
REMARK  132  A    between atoms: _332  and  _335
REMARK  133  A    between atoms: _335  and  _336
REMARK  134  A    between atoms: _336  and  _337
REMARK  135  A    between atoms: _340  and  _342
REMARK  136  A    between atoms: _342  and  _343
REMARK  137  A    between atoms: _342  and  _345
REMARK  138  A    between atoms: _348  and  _350
REMARK  139  A    between atoms: _350  and  _351
REMARK  140  A    between atoms: _350  and  _353
REMARK  141  A    between atoms: _353  and  _354
REMARK                            x       y       z     vdW  Elec       q    Type
REMARK                         _______ _______ _______ _____ _____    ______ ____
ROOT
ATOM      1  NE  ARG A   1      -0.681 -12.664  -3.564  0.00  0.00    -0.265 N 
ATOM      2  CZ  ARG A   1      -0.656 -13.832  -2.888  0.00  0.00    +0.342 C 
ATOM      3  NH2 ARG A   1       0.077 -13.878  -1.786  0.00  0.00    -0.292 N 
ATOM      4 HH21 ARG A   1       0.127 -14.756  -1.231  0.00  0.00    +0.255 HD
ATOM      5 HH22 ARG A   1       0.602 -13.036  -1.475  0.00  0.00    +0.255 HD
ATOM      6  NH1 ARG A   1      -1.318 -14.943  -3.299  0.00  0.00    -0.292 N 
ATOM      7 HH11 ARG A   1      -1.264 -15.818  -2.739  0.00  0.00    +0.255 HD
ATOM      8 HH12 ARG A   1      -1.879 -14.920  -4.174  0.00  0.00    +0.255 HD
ATOM      9  HE  ARG A   1      -0.158 -11.847  -3.188  0.00  0.00    +0.259 HD
ENDROOT
BRANCH   1  10
ATOM     10  CD  ARG A   1      -1.433 -12.520  -4.824  0.00  0.00    +0.174 C 
BRANCH  10  11
ATOM     11  CG  ARG A   1      -0.498 -12.850  -6.046  0.00  0.00    +0.045 C 
BRANCH  11  12
ATOM     12  CB  ARG A   1      -1.220 -12.742  -7.375  0.00  0.00    +0.029 C 
BRANCH  12  13
ATOM     13  CA  ARG A   1      -0.383 -13.406  -8.484  0.00  0.00    +0.133 C 
BRANCH  13  14
ATOM     14  N   ARG A   1       0.863 -12.613  -8.723  0.00  0.00    -0.239 NA
ATOM     15  H   ARG A   1       0.803 -11.600  -8.949  0.00  0.00    +0.142 HD
ENDBRANCH  13  14
BRANCH  13  16
ATOM     16  C   ARG A   1      -1.126 -13.438  -9.767  0.00  0.00    +0.224 C 
ATOM     17  O   ARG A   1      -1.038 -12.482 -10.544  0.00  0.00    -0.287 OA
ENDBRANCH  13  16
ENDBRANCH  12  13
ENDBRANCH  11  12
ENDBRANCH  10  11
ENDBRANCH   1  10
TORSDOF 6
REMARK  Name = ../refined-set-2016/3arr/3arr_pocket.pdb
REMARK  141 active torsions:
REMARK  status: ('A' for Active; 'I' for Inactive)
REMARK    1  A    between atoms: _1  and  _3
REMARK    2  A    between atoms: _3  and  _4
REMARK    3  A    between atoms: _3  and  _6
REMARK    4  A    between atoms: _6  and  _7
REMARK    5  A    between atoms: _17  and  _19
REMARK    6  A    between atoms: _19  and  _20
REMARK    7  A    between atoms: _19  and  _22
REMARK    8  A    between atoms: _22  and  _23
REMARK    9  A    between atoms: _26  and  _28
REMARK   10  A    between atoms: _28  and  _29
REMARK   11  A    between atoms: _28  and  _31
REMARK   12  A    between atoms: _31  and  _32
REMARK   13  A    between atoms: _32  and  _33
REMARK   14  A    between atoms: _36  and  _38
REMARK   15  A    between atoms: _38  and  _39
REMARK   16  A    between atoms: _38  and  _41
REMARK   17  A    between atoms: _41  and  _42
REMARK   18  A    between atoms: _48  and  _50
REMARK   19  A    between atoms: _50  and  _51
REMARK   20  A    between atoms: _53  and  _55
REMARK   21  A    between atoms: _55  and  _56
REMARK   22  A    between atoms: _58  and  _60
REMARK   23  A    between atoms: _60  and  _61
REMARK   24  A    between atoms: _63  and  _65
REMARK   25  A    between atoms: _65  and  _66
REMARK   26  A    between atoms: _69  and  _71
REMARK   27  A    between atoms: _71  and  _72
REMARK   28  A    between atoms: _71  and  _74
REMARK   29  A    between atoms: _74  and  _75
REMARK   30  A    between atoms: _78  and  _80
REMARK   31  A    between atoms: _80  and  _81
REMARK   32  A    between atoms: _83  and  _85
REMARK   33  A    between atoms: _85  and  _86
REMARK   34  A    between atoms: _85  and  _88
REMARK   35  A    between atoms: _91  and  _93
REMARK   36  A    between atoms: _93  and  _94
REMARK   37  A    between atoms: _96  and  _98
REMARK   38  A    between atoms: _98  and  _99
REMARK   39  A    between atoms: _98  and  _101
REMARK   40  A    between atoms: _101  and  _102
REMARK   41  A    between atoms: _107  and  _108
REMARK   42  A    between atoms: _110  and  _112
REMARK   43  A    between atoms: _112  and  _113
REMARK   44  A    between atoms: _112  and  _115
REMARK   45  A    between atoms: _115  and  _116
REMARK   46  A    between atoms: _119  and  _121
REMARK   47  A    between atoms: _121  and  _122
REMARK   48  A    between atoms: _121  and  _124
REMARK   49  A    between atoms: _124  and  _125
REMARK   50  A    between atoms: _125  and  _126
REMARK   51  A    between atoms: _126  and  _127
REMARK   52  A    between atoms: _127  and  _128
REMARK   53  A    between atoms: _132  and  _134
REMARK   54  A    between atoms: _134  and  _135
REMARK   55  A    between atoms: _134  and  _137
REMARK   56  A    between atoms: _137  and  _138
REMARK   57  A    between atoms: _141  and  _143
REMARK   58  A    between atoms: _143  and  _144
REMARK   59  A    between atoms: _143  and  _146
REMARK   60  A    between atoms: _146  and  _147
REMARK   61  A    between atoms: _147  and  _148
REMARK   62  A    between atoms: _150  and  _152
REMARK   63  A    between atoms: _152  and  _153
REMARK   64  A    between atoms: _152  and  _155
REMARK   65  A    between atoms: _155  and  _156
REMARK   66  A    between atoms: _159  and  _161
REMARK   67  A    between atoms: _161  and  _162
REMARK   68  A    between atoms: _161  and  _164
REMARK   69  A    between atoms: _164  and  _165
REMARK   70  A    between atoms: _170  and  _171
REMARK   71  A    between atoms: _173  and  _175
REMARK   72  A    between atoms: _175  and  _176
REMARK   73  A    between atoms: _175  and  _178
REMARK   74  A    between atoms: _178  and  _179
REMARK   75  A    between atoms: _182  and  _184
REMARK   76  A    between atoms: _184  and  _185
REMARK   77  A    between atoms: _184  and  _187
REMARK   78  A    between atoms: _187  and  _188
REMARK   79  A    between atoms: _194  and  _196
REMARK   80  A    between atoms: _196  and  _197
REMARK   81  A    between atoms: _196  and  _199
REMARK   82  A    between atoms: _199  and  _200
REMARK   83  A    between atoms: _205  and  _206
REMARK   84  A    between atoms: _208  and  _210
REMARK   85  A    between atoms: _210  and  _211
REMARK   86  A    between atoms: _213  and  _215
REMARK   87  A    between atoms: _215  and  _216
REMARK   88  A    between atoms: _218  and  _220
REMARK   89  A    between atoms: _220  and  _221
REMARK   90  A    between atoms: _220  and  _223
REMARK   91  A    between atoms: _223  and  _224
REMARK   92  A    between atoms: _234  and  _236
REMARK   93  A    between atoms: _236  and  _237
REMARK   94  A    between atoms: _236  and  _239
REMARK   95  A    between atoms: _239  and  _240
REMARK   96  A    between atoms: _245  and  _247
REMARK   97  A    between atoms: _247  and  _248
REMARK   98  A    between atoms: _247  and  _250
REMARK   99  A    between atoms: _250  and  _251
REMARK  100  A    between atoms: _251  and  _252
REMARK  101  A    between atoms: _257  and  _259
REMARK  102  A    between atoms: _259  and  _260
REMARK  103  A    between atoms: _263  and  _265
REMARK  104  A    between atoms: _265  and  _266
REMARK  105  A    between atoms: _265  and  _268
REMARK  106  A    between atoms: _268  and  _269
REMARK  107  A    between atoms: _274  and  _275
REMARK  108  A    between atoms: _277  and  _279
REMARK  109  A    between atoms: _279  and  _280
REMARK  110  A    between atoms: _279  and  _282
REMARK  111  A    between atoms: _282  and  _283
REMARK  112  A    between atoms: _286  and  _288
REMARK  113  A    between atoms: _288  and  _289
REMARK  114  A    between atoms: _288  and  _291
REMARK  115  A    between atoms: _291  and  _292
REMARK  116  A    between atoms: _297  and  _298
REMARK  117  A    between atoms: _300  and  _302
REMARK  118  A    between atoms: _302  and  _303
REMARK  119  A    between atoms: _302  and  _305
REMARK  120  A    between atoms: _305  and  _306
REMARK  121  A    between atoms: _306  and  _307
REMARK  122  A    between atoms: _307  and  _308
REMARK  123  A    between atoms: _317  and  _319
REMARK  124  A    between atoms: _319  and  _320
REMARK  125  A    between atoms: _319  and  _322
REMARK  126  A    between atoms: _322  and  _323
REMARK  127  A    between atoms: _323  and  _324
REMARK  128  A    between atoms: _324  and  _325
REMARK  129  A    between atoms: _325  and  _326
REMARK  130  A    between atoms: _330  and  _332
REMARK  131  A    between atoms: _332  and  _333
REMARK  132  A    between atoms: _332  and  _335
REMARK  133  A    between atoms: _335  and  _336
REMARK  134  A    between atoms: _336  and  _337
REMARK  135  A    between atoms: _340  and  _342
REMARK  136  A    between atoms: _342  and  _343
REMARK  137  A    between atoms: _342  and  _345
REMARK  138  A    between atoms: _348  and  _350
REMARK  139  A    between atoms: _350  and  _351
REMARK  140  A    between atoms: _350  and  _353
REMARK  141  A    between atoms: _353  and  _354
REMARK                            x       y       z     vdW  Elec       q    Type
REMARK                         _______ _______ _______ _____ _____    ______ ____
ROOT
ATOM      1  CG  LYS A   1      -6.678 -19.558  -7.885  0.00  0.00    -0.001 C 
ENDROOT
BRANCH   1   2
ATOM      2  CB  LYS A   1      -5.929 -20.040  -9.051  0.00  0.00    +0.020 C 
BRANCH   2   3
ATOM      3  CA  LYS A   1      -6.331 -19.255 -10.341  0.00  0.00    +0.101 C 
BRANCH   3   4
ATOM      4  N   LYS A   1      -7.718 -19.610 -10.695  0.00  0.00    -0.244 NA
ATOM      5  H   LYS A   1      -8.096 -20.513 -10.345  0.00  0.00    +0.141 HD
ENDBRANCH   3   4
BRANCH   3   6
ATOM      6  C   LYS A   1      -5.383 -19.633 -11.434  0.00  0.00    +0.199 C 
ATOM      7  O   LYS A   1      -5.593 -20.665 -12.174  0.00  0.00    -0.219 OA
ENDBRANCH   3   6
ENDBRANCH   2   3
ENDBRANCH   1   2
BRANCH   1   8
ATOM      8  CD  LYS A   1      -6.242 -20.359  -6.643  0.00  0.00    -0.024 C 
BRANCH   8   9
ATOM      9  CE  LYS A   1      -7.051 -19.968  -5.458  0.00  0.00    -0.086 C 
BRANCH   9  10
ATOM     10  NZ  LYS A   1      -6.490 -20.616  -4.253  0.00  0.00    +0.380 N 
ATOM     11  HZ1 LYS A   1      -7.053 -20.345  -3.421  0.00  0.00    -0.089 HD
ATOM     12  HZ2 LYS A   1      -5.505 -20.308  -4.122  0.00  0.00    -0.089 HD
ATOM     13  HZ3 LYS A   1      -6.519 -21.649  -4.371  0.00  0.00    -0.089 HD
ENDBRANCH   9  10
ENDBRANCH   8   9
ENDBRANCH   1   8
TORSDOF 7
REMARK  Name = ../refined-set-2016/3arr/3arr_pocket.pdb
REMARK  141 active torsions:
REMARK  status: ('A' for Active; 'I' for Inactive)
REMARK    1  A    between atoms: _1  and  _3
REMARK    2  A    between atoms: _3  and  _4
REMARK    3  A    between atoms: _3  and  _6
REMARK    4  A    between atoms: _6  and  _7
REMARK    5  A    between atoms: _17  and  _19
REMARK    6  A    between atoms: _19  and  _20
REMARK    7  A    between atoms: _19  and  _22
REMARK    8  A    between atoms: _22  and  _23
REMARK    9  A    between atoms: _26  and  _28
REMARK   10  A    between atoms: _28  and  _29
REMARK   11  A    between atoms: _28  and  _31
REMARK   12  A    between atoms: _31  and  _32
REMARK   13  A    between atoms: _32  and  _33
REMARK   14  A    between atoms: _36  and  _38
REMARK   15  A    between atoms: _38  and  _39
REMARK   16  A    between atoms: _38  and  _41
REMARK   17  A    between atoms: _41  and  _42
REMARK   18  A    between atoms: _48  and  _50
REMARK   19  A    between atoms: _50  and  _51
REMARK   20  A    between atoms: _53  and  _55
REMARK   21  A    between atoms: _55  and  _56
REMARK   22  A    between atoms: _58  and  _60
REMARK   23  A    between atoms: _60  and  _61
REMARK   24  A    between atoms: _63  and  _65
REMARK   25  A    between atoms: _65  and  _66
REMARK   26  A    between atoms: _69  and  _71
REMARK   27  A    between atoms: _71  and  _72
REMARK   28  A    between atoms: _71  and  _74
REMARK   29  A    between atoms: _74  and  _75
REMARK   30  A    between atoms: _78  and  _80
REMARK   31  A    between atoms: _80  and  _81
REMARK   32  A    between atoms: _83  and  _85
REMARK   33  A    between atoms: _85  and  _86
REMARK   34  A    between atoms: _85  and  _88
REMARK   35  A    between atoms: _91  and  _93
REMARK   36  A    between atoms: _93  and  _94
REMARK   37  A    between atoms: _96  and  _98
REMARK   38  A    between atoms: _98  and  _99
REMARK   39  A    between atoms: _98  and  _101
REMARK   40  A    between atoms: _101  and  _102
REMARK   41  A    between atoms: _107  and  _108
REMARK   42  A    between atoms: _110  and  _112
REMARK   43  A    between atoms: _112  and  _113
REMARK   44  A    between atoms: _112  and  _115
REMARK   45  A    between atoms: _115  and  _116
REMARK   46  A    between atoms: _119  and  _121
REMARK   47  A    between atoms: _121  and  _122
REMARK   48  A    between atoms: _121  and  _124
REMARK   49  A    between atoms: _124  and  _125
REMARK   50  A    between atoms: _125  and  _126
REMARK   51  A    between atoms: _126  and  _127
REMARK   52  A    between atoms: _127  and  _128
REMARK   53  A    between atoms: _132  and  _134
REMARK   54  A    between atoms: _134  and  _135
REMARK   55  A    between atoms: _134  and  _137
REMARK   56  A    between atoms: _137  and  _138
REMARK   57  A    between atoms: _141  and  _143
REMARK   58  A    between atoms: _143  and  _144
REMARK   59  A    between atoms: _143  and  _146
REMARK   60  A    between atoms: _146  and  _147
REMARK   61  A    between atoms: _147  and  _148
REMARK   62  A    between atoms: _150  and  _152
REMARK   63  A    between atoms: _152  and  _153
REMARK   64  A    between atoms: _152  and  _155
REMARK   65  A    between atoms: _155  and  _156
REMARK   66  A    between atoms: _159  and  _161
REMARK   67  A    between atoms: _161  and  _162
REMARK   68  A    between atoms: _161  and  _164
REMARK   69  A    between atoms: _164  and  _165
REMARK   70  A    between atoms: _170  and  _171
REMARK   71  A    between atoms: _173  and  _175
REMARK   72  A    between atoms: _175  and  _176
REMARK   73  A    between atoms: _175  and  _178
REMARK   74  A    between atoms: _178  and  _179
REMARK   75  A    between atoms: _182  and  _184
REMARK   76  A    between atoms: _184  and  _185
REMARK   77  A    between atoms: _184  and  _187
REMARK   78  A    between atoms: _187  and  _188
REMARK   79  A    between atoms: _194  and  _196
REMARK   80  A    between atoms: _196  and  _197
REMARK   81  A    between atoms: _196  and  _199
REMARK   82  A    between atoms: _199  and  _200
REMARK   83  A    between atoms: _205  and  _206
REMARK   84  A    between atoms: _208  and  _210
REMARK   85  A    between atoms: _210  and  _211
REMARK   86  A    between atoms: _213  and  _215
REMARK   87  A    between atoms: _215  and  _216
REMARK   88  A    between atoms: _218  and  _220
REMARK   89  A    between atoms: _220  and  _221
REMARK   90  A    between atoms: _220  and  _223
REMARK   91  A    between atoms: _223  and  _224
REMARK   92  A    between atoms: _234  and  _236
REMARK   93  A    between atoms: _236  and  _237
REMARK   94  A    between atoms: _236  and  _239
REMARK   95  A    between atoms: _239  and  _240
REMARK   96  A    between atoms: _245  and  _247
REMARK   97  A    between atoms: _247  and  _248
REMARK   98  A    between atoms: _247  and  _250
REMARK   99  A    between atoms: _250  and  _251
REMARK  100  A    between atoms: _251  and  _252
REMARK  101  A    between atoms: _257  and  _259
REMARK  102  A    between atoms: _259  and  _260
REMARK  103  A    between atoms: _263  and  _265
REMARK  104  A    between atoms: _265  and  _266
REMARK  105  A    between atoms: _265  and  _268
REMARK  106  A    between atoms: _268  and  _269
REMARK  107  A    between atoms: _274  and  _275
REMARK  108  A    between atoms: _277  and  _279
REMARK  109  A    between atoms: _279  and  _280
REMARK  110  A    between atoms: _279  and  _282
REMARK  111  A    between atoms: _282  and  _283
REMARK  112  A    between atoms: _286  and  _288
REMARK  113  A    between atoms: _288  and  _289
REMARK  114  A    between atoms: _288  and  _291
REMARK  115  A    between atoms: _291  and  _292
REMARK  116  A    between atoms: _297  and  _298
REMARK  117  A    between atoms: _300  and  _302
REMARK  118  A    between atoms: _302  and  _303
REMARK  119  A    between atoms: _302  and  _305
REMARK  120  A    between atoms: _305  and  _306
REMARK  121  A    between atoms: _306  and  _307
REMARK  122  A    between atoms: _307  and  _308
REMARK  123  A    between atoms: _317  and  _319
REMARK  124  A    between atoms: _319  and  _320
REMARK  125  A    between atoms: _319  and  _322
REMARK  126  A    between atoms: _322  and  _323
REMARK  127  A    between atoms: _323  and  _324
REMARK  128  A    between atoms: _324  and  _325
REMARK  129  A    between atoms: _325  and  _326
REMARK  130  A    between atoms: _330  and  _332
REMARK  131  A    between atoms: _332  and  _333
REMARK  132  A    between atoms: _332  and  _335
REMARK  133  A    between atoms: _335  and  _336
REMARK  134  A    between atoms: _336  and  _337
REMARK  135  A    between atoms: _340  and  _342
REMARK  136  A    between atoms: _342  and  _343
REMARK  137  A    between atoms: _342  and  _345
REMARK  138  A    between atoms: _348  and  _350
REMARK  139  A    between atoms: _350  and  _351
REMARK  140  A    between atoms: _350  and  _353
REMARK  141  A    between atoms: _353  and  _354
REMARK                            x       y       z     vdW  Elec       q    Type
REMARK                         _______ _______ _______ _____ _____    ______ ____
ROOT
ATOM      1  CA  GLU A   1       0.862 -22.887  -5.223  0.00  0.00    +0.134 C 
ENDROOT
BRANCH   1   2
ATOM      2  N   GLU A   1       2.256 -22.804  -5.743  0.00  0.00    -0.239 NA
ATOM      3  H   GLU A   1       2.525 -21.970  -6.303  0.00  0.00    +0.142 HD
ENDBRANCH   1   2
BRANCH   1   4
ATOM      4  C   GLU A   1       0.020 -22.239  -6.327  0.00  0.00    +0.224 C 
ATOM      5  O   GLU A   1       0.499 -21.264  -6.943  0.00  0.00    -0.287 OA
ENDBRANCH   1   4
BRANCH   1   6
ATOM      6  CB  GLU A   1       0.758 -22.003  -3.967  0.00  0.00    +0.037 C 
BRANCH   6   7
ATOM      7  CG  GLU A   1      -0.621 -21.778  -3.333  0.00  0.00    +0.116 C 
BRANCH   7   8
ATOM      8  CD  GLU A   1      -0.481 -20.970  -2.040  0.00  0.00    +0.365 C 
ATOM      9  OE2 GLU A   1      -1.020 -21.417  -1.001  0.00  0.00    -0.246 OA
ATOM     10  OE1 GLU A   1       0.185 -19.892  -2.058  0.00  0.00    -0.246 OA
ENDBRANCH   7   8
ENDBRANCH   6   7
ENDBRANCH   1   6
TORSDOF 5
REMARK  Name = ../refined-set-2016/3arr/3arr_pocket.pdb
REMARK  141 active torsions:
REMARK  status: ('A' for Active; 'I' for Inactive)
REMARK    1  A    between atoms: _1  and  _3
REMARK    2  A    between atoms: _3  and  _4
REMARK    3  A    between atoms: _3  and  _6
REMARK    4  A    between atoms: _6  and  _7
REMARK    5  A    between atoms: _17  and  _19
REMARK    6  A    between atoms: _19  and  _20
REMARK    7  A    between atoms: _19  and  _22
REMARK    8  A    between atoms: _22  and  _23
REMARK    9  A    between atoms: _26  and  _28
REMARK   10  A    between atoms: _28  and  _29
REMARK   11  A    between atoms: _28  and  _31
REMARK   12  A    between atoms: _31  and  _32
REMARK   13  A    between atoms: _32  and  _33
REMARK   14  A    between atoms: _36  and  _38
REMARK   15  A    between atoms: _38  and  _39
REMARK   16  A    between atoms: _38  and  _41
REMARK   17  A    between atoms: _41  and  _42
REMARK   18  A    between atoms: _48  and  _50
REMARK   19  A    between atoms: _50  and  _51
REMARK   20  A    between atoms: _53  and  _55
REMARK   21  A    between atoms: _55  and  _56
REMARK   22  A    between atoms: _58  and  _60
REMARK   23  A    between atoms: _60  and  _61
REMARK   24  A    between atoms: _63  and  _65
REMARK   25  A    between atoms: _65  and  _66
REMARK   26  A    between atoms: _69  and  _71
REMARK   27  A    between atoms: _71  and  _72
REMARK   28  A    between atoms: _71  and  _74
REMARK   29  A    between atoms: _74  and  _75
REMARK   30  A    between atoms: _78  and  _80
REMARK   31  A    between atoms: _80  and  _81
REMARK   32  A    between atoms: _83  and  _85
REMARK   33  A    between atoms: _85  and  _86
REMARK   34  A    between atoms: _85  and  _88
REMARK   35  A    between atoms: _91  and  _93
REMARK   36  A    between atoms: _93  and  _94
REMARK   37  A    between atoms: _96  and  _98
REMARK   38  A    between atoms: _98  and  _99
REMARK   39  A    between atoms: _98  and  _101
REMARK   40  A    between atoms: _101  and  _102
REMARK   41  A    between atoms: _107  and  _108
REMARK   42  A    between atoms: _110  and  _112
REMARK   43  A    between atoms: _112  and  _113
REMARK   44  A    between atoms: _112  and  _115
REMARK   45  A    between atoms: _115  and  _116
REMARK   46  A    between atoms: _119  and  _121
REMARK   47  A    between atoms: _121  and  _122
REMARK   48  A    between atoms: _121  and  _124
REMARK   49  A    between atoms: _124  and  _125
REMARK   50  A    between atoms: _125  and  _126
REMARK   51  A    between atoms: _126  and  _127
REMARK   52  A    between atoms: _127  and  _128
REMARK   53  A    between atoms: _132  and  _134
REMARK   54  A    between atoms: _134  and  _135
REMARK   55  A    between atoms: _134  and  _137
REMARK   56  A    between atoms: _137  and  _138
REMARK   57  A    between atoms: _141  and  _143
REMARK   58  A    between atoms: _143  and  _144
REMARK   59  A    between atoms: _143  and  _146
REMARK   60  A    between atoms: _146  and  _147
REMARK   61  A    between atoms: _147  and  _148
REMARK   62  A    between atoms: _150  and  _152
REMARK   63  A    between atoms: _152  and  _153
REMARK   64  A    between atoms: _152  and  _155
REMARK   65  A    between atoms: _155  and  _156
REMARK   66  A    between atoms: _159  and  _161
REMARK   67  A    between atoms: _161  and  _162
REMARK   68  A    between atoms: _161  and  _164
REMARK   69  A    between atoms: _164  and  _165
REMARK   70  A    between atoms: _170  and  _171
REMARK   71  A    between atoms: _173  and  _175
REMARK   72  A    between atoms: _175  and  _176
REMARK   73  A    between atoms: _175  and  _178
REMARK   74  A    between atoms: _178  and  _179
REMARK   75  A    between atoms: _182  and  _184
REMARK   76  A    between atoms: _184  and  _185
REMARK   77  A    between atoms: _184  and  _187
REMARK   78  A    between atoms: _187  and  _188
REMARK   79  A    between atoms: _194  and  _196
REMARK   80  A    between atoms: _196  and  _197
REMARK   81  A    between atoms: _196  and  _199
REMARK   82  A    between atoms: _199  and  _200
REMARK   83  A    between atoms: _205  and  _206
REMARK   84  A    between atoms: _208  and  _210
REMARK   85  A    between atoms: _210  and  _211
REMARK   86  A    between atoms: _213  and  _215
REMARK   87  A    between atoms: _215  and  _216
REMARK   88  A    between atoms: _218  and  _220
REMARK   89  A    between atoms: _220  and  _221
REMARK   90  A    between atoms: _220  and  _223
REMARK   91  A    between atoms: _223  and  _224
REMARK   92  A    between atoms: _234  and  _236
REMARK   93  A    between atoms: _236  and  _237
REMARK   94  A    between atoms: _236  and  _239
REMARK   95  A    between atoms: _239  and  _240
REMARK   96  A    between atoms: _245  and  _247
REMARK   97  A    between atoms: _247  and  _248
REMARK   98  A    between atoms: _247  and  _250
REMARK   99  A    between atoms: _250  and  _251
REMARK  100  A    between atoms: _251  and  _252
REMARK  101  A    between atoms: _257  and  _259
REMARK  102  A    between atoms: _259  and  _260
REMARK  103  A    between atoms: _263  and  _265
REMARK  104  A    between atoms: _265  and  _266
REMARK  105  A    between atoms: _265  and  _268
REMARK  106  A    between atoms: _268  and  _269
REMARK  107  A    between atoms: _274  and  _275
REMARK  108  A    between atoms: _277  and  _279
REMARK  109  A    between atoms: _279  and  _280
REMARK  110  A    between atoms: _279  and  _282
REMARK  111  A    between atoms: _282  and  _283
REMARK  112  A    between atoms: _286  and  _288
REMARK  113  A    between atoms: _288  and  _289
REMARK  114  A    between atoms: _288  and  _291
REMARK  115  A    between atoms: _291  and  _292
REMARK  116  A    between atoms: _297  and  _298
REMARK  117  A    between atoms: _300  and  _302
REMARK  118  A    between atoms: _302  and  _303
REMARK  119  A    between atoms: _302  and  _305
REMARK  120  A    between atoms: _305  and  _306
REMARK  121  A    between atoms: _306  and  _307
REMARK  122  A    between atoms: _307  and  _308
REMARK  123  A    between atoms: _317  and  _319
REMARK  124  A    between atoms: _319  and  _320
REMARK  125  A    between atoms: _319  and  _322
REMARK  126  A    between atoms: _322  and  _323
REMARK  127  A    between atoms: _323  and  _324
REMARK  128  A    between atoms: _324  and  _325
REMARK  129  A    between atoms: _325  and  _326
REMARK  130  A    between atoms: _330  and  _332
REMARK  131  A    between atoms: _332  and  _333
REMARK  132  A    between atoms: _332  and  _335
REMARK  133  A    between atoms: _335  and  _336
REMARK  134  A    between atoms: _336  and  _337
REMARK  135  A    between atoms: _340  and  _342
REMARK  136  A    between atoms: _342  and  _343
REMARK  137  A    between atoms: _342  and  _345
REMARK  138  A    between atoms: _348  and  _350
REMARK  139  A    between atoms: _350  and  _351
REMARK  140  A    between atoms: _350  and  _353
REMARK  141  A    between atoms: _353  and  _354
REMARK                            x       y       z     vdW  Elec       q    Type
REMARK                         _______ _______ _______ _____ _____    ______ ____
ROOT
ATOM      1  CA  VAL A   1       1.242 -17.459  -7.358  0.00  0.00    +0.133 C 
ENDROOT
BRANCH   1   2
ATOM      2  CB  VAL A   1       1.564 -17.659  -5.854  0.00  0.00    +0.023 C 
ATOM      3  CG2 VAL A   1       0.241 -17.368  -4.962  0.00  0.00    +0.002 C 
ATOM      4  CG1 VAL A   1       2.739 -16.739  -5.445  0.00  0.00    +0.002 C 
ENDBRANCH   1   2
BRANCH   1   5
ATOM      5  N   VAL A   1       0.014 -18.169  -7.737  0.00  0.00    -0.239 NA
ATOM      6  H   VAL A   1       0.057 -19.199  -7.873  0.00  0.00    +0.142 HD
ENDBRANCH   1   5
BRANCH   1   7
ATOM      7  C   VAL A   1       2.369 -17.936  -8.244  0.00  0.00    +0.224 C 
ATOM      8  O   VAL A   1       2.531 -19.147  -8.359  0.00  0.00    -0.287 OA
ENDBRANCH   1   7
TORSDOF 3
REMARK  Name = ../refined-set-2016/3arr/3arr_pocket.pdb
REMARK  141 active torsions:
REMARK  status: ('A' for Active; 'I' for Inactive)
REMARK    1  A    between atoms: _1  and  _3
REMARK    2  A    between atoms: _3  and  _4
REMARK    3  A    between atoms: _3  and  _6
REMARK    4  A    between atoms: _6  and  _7
REMARK    5  A    between atoms: _17  and  _19
REMARK    6  A    between atoms: _19  and  _20
REMARK    7  A    between atoms: _19  and  _22
REMARK    8  A    between atoms: _22  and  _23
REMARK    9  A    between atoms: _26  and  _28
REMARK   10  A    between atoms: _28  and  _29
REMARK   11  A    between atoms: _28  and  _31
REMARK   12  A    between atoms: _31  and  _32
REMARK   13  A    between atoms: _32  and  _33
REMARK   14  A    between atoms: _36  and  _38
REMARK   15  A    between atoms: _38  and  _39
REMARK   16  A    between atoms: _38  and  _41
REMARK   17  A    between atoms: _41  and  _42
REMARK   18  A    between atoms: _48  and  _50
REMARK   19  A    between atoms: _50  and  _51
REMARK   20  A    between atoms: _53  and  _55
REMARK   21  A    between atoms: _55  and  _56
REMARK   22  A    between atoms: _58  and  _60
REMARK   23  A    between atoms: _60  and  _61
REMARK   24  A    between atoms: _63  and  _65
REMARK   25  A    between atoms: _65  and  _66
REMARK   26  A    between atoms: _69  and  _71
REMARK   27  A    between atoms: _71  and  _72
REMARK   28  A    between atoms: _71  and  _74
REMARK   29  A    between atoms: _74  and  _75
REMARK   30  A    between atoms: _78  and  _80
REMARK   31  A    between atoms: _80  and  _81
REMARK   32  A    between atoms: _83  and  _85
REMARK   33  A    between atoms: _85  and  _86
REMARK   34  A    between atoms: _85  and  _88
REMARK   35  A    between atoms: _91  and  _93
REMARK   36  A    between atoms: _93  and  _94
REMARK   37  A    between atoms: _96  and  _98
REMARK   38  A    between atoms: _98  and  _99
REMARK   39  A    between atoms: _98  and  _101
REMARK   40  A    between atoms: _101  and  _102
REMARK   41  A    between atoms: _107  and  _108
REMARK   42  A    between atoms: _110  and  _112
REMARK   43  A    between atoms: _112  and  _113
REMARK   44  A    between atoms: _112  and  _115
REMARK   45  A    between atoms: _115  and  _116
REMARK   46  A    between atoms: _119  and  _121
REMARK   47  A    between atoms: _121  and  _122
REMARK   48  A    between atoms: _121  and  _124
REMARK   49  A    between atoms: _124  and  _125
REMARK   50  A    between atoms: _125  and  _126
REMARK   51  A    between atoms: _126  and  _127
REMARK   52  A    between atoms: _127  and  _128
REMARK   53  A    between atoms: _132  and  _134
REMARK   54  A    between atoms: _134  and  _135
REMARK   55  A    between atoms: _134  and  _137
REMARK   56  A    between atoms: _137  and  _138
REMARK   57  A    between atoms: _141  and  _143
REMARK   58  A    between atoms: _143  and  _144
REMARK   59  A    between atoms: _143  and  _146
REMARK   60  A    between atoms: _146  and  _147
REMARK   61  A    between atoms: _147  and  _148
REMARK   62  A    between atoms: _150  and  _152
REMARK   63  A    between atoms: _152  and  _153
REMARK   64  A    between atoms: _152  and  _155
REMARK   65  A    between atoms: _155  and  _156
REMARK   66  A    between atoms: _159  and  _161
REMARK   67  A    between atoms: _161  and  _162
REMARK   68  A    between atoms: _161  and  _164
REMARK   69  A    between atoms: _164  and  _165
REMARK   70  A    between atoms: _170  and  _171
REMARK   71  A    between atoms: _173  and  _175
REMARK   72  A    between atoms: _175  and  _176
REMARK   73  A    between atoms: _175  and  _178
REMARK   74  A    between atoms: _178  and  _179
REMARK   75  A    between atoms: _182  and  _184
REMARK   76  A    between atoms: _184  and  _185
REMARK   77  A    between atoms: _184  and  _187
REMARK   78  A    between atoms: _187  and  _188
REMARK   79  A    between atoms: _194  and  _196
REMARK   80  A    between atoms: _196  and  _197
REMARK   81  A    between atoms: _196  and  _199
REMARK   82  A    between atoms: _199  and  _200
REMARK   83  A    between atoms: _205  and  _206
REMARK   84  A    between atoms: _208  and  _210
REMARK   85  A    between atoms: _210  and  _211
REMARK   86  A    between atoms: _213  and  _215
REMARK   87  A    between atoms: _215  and  _216
REMARK   88  A    between atoms: _218  and  _220
REMARK   89  A    between atoms: _220  and  _221
REMARK   90  A    between atoms: _220  and  _223
REMARK   91  A    between atoms: _223  and  _224
REMARK   92  A    between atoms: _234  and  _236
REMARK   93  A    between atoms: _236  and  _237
REMARK   94  A    between atoms: _236  and  _239
REMARK   95  A    between atoms: _239  and  _240
REMARK   96  A    between atoms: _245  and  _247
REMARK   97  A    between atoms: _247  and  _248
REMARK   98  A    between atoms: _247  and  _250
REMARK   99  A    between atoms: _250  and  _251
REMARK  100  A    between atoms: _251  and  _252
REMARK  101  A    between atoms: _257  and  _259
REMARK  102  A    between atoms: _259  and  _260
REMARK  103  A    between atoms: _263  and  _265
REMARK  104  A    between atoms: _265  and  _266
REMARK  105  A    between atoms: _265  and  _268
REMARK  106  A    between atoms: _268  and  _269
REMARK  107  A    between atoms: _274  and  _275
REMARK  108  A    between atoms: _277  and  _279
REMARK  109  A    between atoms: _279  and  _280
REMARK  110  A    between atoms: _279  and  _282
REMARK  111  A    between atoms: _282  and  _283
REMARK  112  A    between atoms: _286  and  _288
REMARK  113  A    between atoms: _288  and  _289
REMARK  114  A    between atoms: _288  and  _291
REMARK  115  A    between atoms: _291  and  _292
REMARK  116  A    between atoms: _297  and  _298
REMARK  117  A    between atoms: _300  and  _302
REMARK  118  A    between atoms: _302  and  _303
REMARK  119  A    between atoms: _302  and  _305
REMARK  120  A    between atoms: _305  and  _306
REMARK  121  A    between atoms: _306  and  _307
REMARK  122  A    between atoms: _307  and  _308
REMARK  123  A    between atoms: _317  and  _319
REMARK  124  A    between atoms: _319  and  _320
REMARK  125  A    between atoms: _319  and  _322
REMARK  126  A    between atoms: _322  and  _323
REMARK  127  A    between atoms: _323  and  _324
REMARK  128  A    between atoms: _324  and  _325
REMARK  129  A    between atoms: _325  and  _326
REMARK  130  A    between atoms: _330  and  _332
REMARK  131  A    between atoms: _332  and  _333
REMARK  132  A    between atoms: _332  and  _335
REMARK  133  A    between atoms: _335  and  _336
REMARK  134  A    between atoms: _336  and  _337
REMARK  135  A    between atoms: _340  and  _342
REMARK  136  A    between atoms: _342  and  _343
REMARK  137  A    between atoms: _342  and  _345
REMARK  138  A    between atoms: _348  and  _350
REMARK  139  A    between atoms: _350  and  _351
REMARK  140  A    between atoms: _350  and  _353
REMARK  141  A    between atoms: _353  and  _354
REMARK                            x       y       z     vdW  Elec       q    Type
REMARK                         _______ _______ _______ _____ _____    ______ ____
ROOT
ATOM      1  CG  TRP A   1       6.895 -11.308   0.598  0.00  0.00    -0.002 A 
ATOM      2  CD2 TRP A   1       7.030 -12.495   1.431  0.00  0.00    +0.013 A 
ATOM      3  CE3 TRP A   1       8.066 -13.021   2.236  0.00  0.00    +0.001 A 
ATOM      4  CZ3 TRP A   1       7.879 -14.170   2.946  0.00  0.00    +0.000 A 
ATOM      5  CH2 TRP A   1       6.643 -14.875   2.862  0.00  0.00    +0.001 A 
ATOM      6  CZ2 TRP A   1       5.532 -14.281   2.208  0.00  0.00    +0.017 A 
ATOM      7  CE2 TRP A   1       5.761 -13.095   1.498  0.00  0.00    +0.056 A 
ATOM      8  NE1 TRP A   1       4.897 -12.336   0.718  0.00  0.00    -0.352 N 
ATOM      9  HE1 TRP A   1       3.895 -12.549   0.541  0.00  0.00    +0.166 HD
ATOM     10  CD1 TRP A   1       5.586 -11.260   0.221  0.00  0.00    +0.068 A 
ENDROOT
BRANCH   1  11
ATOM     11  CB  TRP A   1       7.868 -10.266   0.280  0.00  0.00    +0.053 C 
BRANCH  11  12
ATOM     12  CA  TRP A   1       9.236 -10.677  -0.314  0.00  0.00    +0.137 C 
BRANCH  12  13
ATOM     13  N   TRP A   1       9.800  -9.436  -0.749  0.00  0.00    -0.239 NA
ATOM     14  H   TRP A   1       9.440  -9.018  -1.631  0.00  0.00    +0.142 HD
ENDBRANCH  12  13
BRANCH  12  15
ATOM     15  C   TRP A   1       9.085 -11.494  -1.617  0.00  0.00    +0.224 C 
ATOM     16  O   TRP A   1       8.371 -11.030  -2.510  0.00  0.00    -0.287 OA
ENDBRANCH  12  15
ENDBRANCH  11  12
ENDBRANCH   1  11
TORSDOF 4
REMARK  Name = ../refined-set-2016/3arr/3arr_pocket.pdb
REMARK  141 active torsions:
REMARK  status: ('A' for Active; 'I' for Inactive)
REMARK    1  A    between atoms: _1  and  _3
REMARK    2  A    between atoms: _3  and  _4
REMARK    3  A    between atoms: _3  and  _6
REMARK    4  A    between atoms: _6  and  _7
REMARK    5  A    between atoms: _17  and  _19
REMARK    6  A    between atoms: _19  and  _20
REMARK    7  A    between atoms: _19  and  _22
REMARK    8  A    between atoms: _22  and  _23
REMARK    9  A    between atoms: _26  and  _28
REMARK   10  A    between atoms: _28  and  _29
REMARK   11  A    between atoms: _28  and  _31
REMARK   12  A    between atoms: _31  and  _32
REMARK   13  A    between atoms: _32  and  _33
REMARK   14  A    between atoms: _36  and  _38
REMARK   15  A    between atoms: _38  and  _39
REMARK   16  A    between atoms: _38  and  _41
REMARK   17  A    between atoms: _41  and  _42
REMARK   18  A    between atoms: _48  and  _50
REMARK   19  A    between atoms: _50  and  _51
REMARK   20  A    between atoms: _53  and  _55
REMARK   21  A    between atoms: _55  and  _56
REMARK   22  A    between atoms: _58  and  _60
REMARK   23  A    between atoms: _60  and  _61
REMARK   24  A    between atoms: _63  and  _65
REMARK   25  A    between atoms: _65  and  _66
REMARK   26  A    between atoms: _69  and  _71
REMARK   27  A    between atoms: _71  and  _72
REMARK   28  A    between atoms: _71  and  _74
REMARK   29  A    between atoms: _74  and  _75
REMARK   30  A    between atoms: _78  and  _80
REMARK   31  A    between atoms: _80  and  _81
REMARK   32  A    between atoms: _83  and  _85
REMARK   33  A    between atoms: _85  and  _86
REMARK   34  A    between atoms: _85  and  _88
REMARK   35  A    between atoms: _91  and  _93
REMARK   36  A    between atoms: _93  and  _94
REMARK   37  A    between atoms: _96  and  _98
REMARK   38  A    between atoms: _98  and  _99
REMARK   39  A    between atoms: _98  and  _101
REMARK   40  A    between atoms: _101  and  _102
REMARK   41  A    between atoms: _107  and  _108
REMARK   42  A    between atoms: _110  and  _112
REMARK   43  A    between atoms: _112  and  _113
REMARK   44  A    between atoms: _112  and  _115
REMARK   45  A    between atoms: _115  and  _116
REMARK   46  A    between atoms: _119  and  _121
REMARK   47  A    between atoms: _121  and  _122
REMARK   48  A    between atoms: _121  and  _124
REMARK   49  A    between atoms: _124  and  _125
REMARK   50  A    between atoms: _125  and  _126
REMARK   51  A    between atoms: _126  and  _127
REMARK   52  A    between atoms: _127  and  _128
REMARK   53  A    between atoms: _132  and  _134
REMARK   54  A    between atoms: _134  and  _135
REMARK   55  A    between atoms: _134  and  _137
REMARK   56  A    between atoms: _137  and  _138
REMARK   57  A    between atoms: _141  and  _143
REMARK   58  A    between atoms: _143  and  _144
REMARK   59  A    between atoms: _143  and  _146
REMARK   60  A    between atoms: _146  and  _147
REMARK   61  A    between atoms: _147  and  _148
REMARK   62  A    between atoms: _150  and  _152
REMARK   63  A    between atoms: _152  and  _153
REMARK   64  A    between atoms: _152  and  _155
REMARK   65  A    between atoms: _155  and  _156
REMARK   66  A    between atoms: _159  and  _161
REMARK   67  A    between atoms: _161  and  _162
REMARK   68  A    between atoms: _161  and  _164
REMARK   69  A    between atoms: _164  and  _165
REMARK   70  A    between atoms: _170  and  _171
REMARK   71  A    between atoms: _173  and  _175
REMARK   72  A    between atoms: _175  and  _176
REMARK   73  A    between atoms: _175  and  _178
REMARK   74  A    between atoms: _178  and  _179
REMARK   75  A    between atoms: _182  and  _184
REMARK   76  A    between atoms: _184  and  _185
REMARK   77  A    between atoms: _184  and  _187
REMARK   78  A    between atoms: _187  and  _188
REMARK   79  A    between atoms: _194  and  _196
REMARK   80  A    between atoms: _196  and  _197
REMARK   81  A    between atoms: _196  and  _199
REMARK   82  A    between atoms: _199  and  _200
REMARK   83  A    between atoms: _205  and  _206
REMARK   84  A    between atoms: _208  and  _210
REMARK   85  A    between atoms: _210  and  _211
REMARK   86  A    between atoms: _213  and  _215
REMARK   87  A    between atoms: _215  and  _216
REMARK   88  A    between atoms: _218  and  _220
REMARK   89  A    between atoms: _220  and  _221
REMARK   90  A    between atoms: _220  and  _223
REMARK   91  A    between atoms: _223  and  _224
REMARK   92  A    between atoms: _234  and  _236
REMARK   93  A    between atoms: _236  and  _237
REMARK   94  A    between atoms: _236  and  _239
REMARK   95  A    between atoms: _239  and  _240
REMARK   96  A    between atoms: _245  and  _247
REMARK   97  A    between atoms: _247  and  _248
REMARK   98  A    between atoms: _247  and  _250
REMARK   99  A    between atoms: _250  and  _251
REMARK  100  A    between atoms: _251  and  _252
REMARK  101  A    between atoms: _257  and  _259
REMARK  102  A    between atoms: _259  and  _260
REMARK  103  A    between atoms: _263  and  _265
REMARK  104  A    between atoms: _265  and  _266
REMARK  105  A    between atoms: _265  and  _268
REMARK  106  A    between atoms: _268  and  _269
REMARK  107  A    between atoms: _274  and  _275
REMARK  108  A    between atoms: _277  and  _279
REMARK  109  A    between atoms: _279  and  _280
REMARK  110  A    between atoms: _279  and  _282
REMARK  111  A    between atoms: _282  and  _283
REMARK  112  A    between atoms: _286  and  _288
REMARK  113  A    between atoms: _288  and  _289
REMARK  114  A    between atoms: _288  and  _291
REMARK  115  A    between atoms: _291  and  _292
REMARK  116  A    between atoms: _297  and  _298
REMARK  117  A    between atoms: _300  and  _302
REMARK  118  A    between atoms: _302  and  _303
REMARK  119  A    between atoms: _302  and  _305
REMARK  120  A    between atoms: _305  and  _306
REMARK  121  A    between atoms: _306  and  _307
REMARK  122  A    between atoms: _307  and  _308
REMARK  123  A    between atoms: _317  and  _319
REMARK  124  A    between atoms: _319  and  _320
REMARK  125  A    between atoms: _319  and  _322
REMARK  126  A    between atoms: _322  and  _323
REMARK  127  A    between atoms: _323  and  _324
REMARK  128  A    between atoms: _324  and  _325
REMARK  129  A    between atoms: _325  and  _326
REMARK  130  A    between atoms: _330  and  _332
REMARK  131  A    between atoms: _332  and  _333
REMARK  132  A    between atoms: _332  and  _335
REMARK  133  A    between atoms: _335  and  _336
REMARK  134  A    between atoms: _336  and  _337
REMARK  135  A    between atoms: _340  and  _342
REMARK  136  A    between atoms: _342  and  _343
REMARK  137  A    between atoms: _342  and  _345
REMARK  138  A    between atoms: _348  and  _350
REMARK  139  A    between atoms: _350  and  _351
REMARK  140  A    between atoms: _350  and  _353
REMARK  141  A    between atoms: _353  and  _354
REMARK                            x       y       z     vdW  Elec       q    Type
REMARK                         _______ _______ _______ _____ _____    ______ ____
ROOT
ATOM      1  O   HOH     1      -3.880   0.731   0.810  0.00  0.00    +0.000 OA
ENDROOT
TORSDOF 0
REMARK  Name = ../refined-set-2016/3arr/3arr_pocket.pdb
REMARK  141 active torsions:
REMARK  status: ('A' for Active; 'I' for Inactive)
REMARK    1  A    between atoms: _1  and  _3
REMARK    2  A    between atoms: _3  and  _4
REMARK    3  A    between atoms: _3  and  _6
REMARK    4  A    between atoms: _6  and  _7
REMARK    5  A    between atoms: _17  and  _19
REMARK    6  A    between atoms: _19  and  _20
REMARK    7  A    between atoms: _19  and  _22
REMARK    8  A    between atoms: _22  and  _23
REMARK    9  A    between atoms: _26  and  _28
REMARK   10  A    between atoms: _28  and  _29
REMARK   11  A    between atoms: _28  and  _31
REMARK   12  A    between atoms: _31  and  _32
REMARK   13  A    between atoms: _32  and  _33
REMARK   14  A    between atoms: _36  and  _38
REMARK   15  A    between atoms: _38  and  _39
REMARK   16  A    between atoms: _38  and  _41
REMARK   17  A    between atoms: _41  and  _42
REMARK   18  A    between atoms: _48  and  _50
REMARK   19  A    between atoms: _50  and  _51
REMARK   20  A    between atoms: _53  and  _55
REMARK   21  A    between atoms: _55  and  _56
REMARK   22  A    between atoms: _58  and  _60
REMARK   23  A    between atoms: _60  and  _61
REMARK   24  A    between atoms: _63  and  _65
REMARK   25  A    between atoms: _65  and  _66
REMARK   26  A    between atoms: _69  and  _71
REMARK   27  A    between atoms: _71  and  _72
REMARK   28  A    between atoms: _71  and  _74
REMARK   29  A    between atoms: _74  and  _75
REMARK   30  A    between atoms: _78  and  _80
REMARK   31  A    between atoms: _80  and  _81
REMARK   32  A    between atoms: _83  and  _85
REMARK   33  A    between atoms: _85  and  _86
REMARK   34  A    between atoms: _85  and  _88
REMARK   35  A    between atoms: _91  and  _93
REMARK   36  A    between atoms: _93  and  _94
REMARK   37  A    between atoms: _96  and  _98
REMARK   38  A    between atoms: _98  and  _99
REMARK   39  A    between atoms: _98  and  _101
REMARK   40  A    between atoms: _101  and  _102
REMARK   41  A    between atoms: _107  and  _108
REMARK   42  A    between atoms: _110  and  _112
REMARK   43  A    between atoms: _112  and  _113
REMARK   44  A    between atoms: _112  and  _115
REMARK   45  A    between atoms: _115  and  _116
REMARK   46  A    between atoms: _119  and  _121
REMARK   47  A    between atoms: _121  and  _122
REMARK   48  A    between atoms: _121  and  _124
REMARK   49  A    between atoms: _124  and  _125
REMARK   50  A    between atoms: _125  and  _126
REMARK   51  A    between atoms: _126  and  _127
REMARK   52  A    between atoms: _127  and  _128
REMARK   53  A    between atoms: _132  and  _134
REMARK   54  A    between atoms: _134  and  _135
REMARK   55  A    between atoms: _134  and  _137
REMARK   56  A    between atoms: _137  and  _138
REMARK   57  A    between atoms: _141  and  _143
REMARK   58  A    between atoms: _143  and  _144
REMARK   59  A    between atoms: _143  and  _146
REMARK   60  A    between atoms: _146  and  _147
REMARK   61  A    between atoms: _147  and  _148
REMARK   62  A    between atoms: _150  and  _152
REMARK   63  A    between atoms: _152  and  _153
REMARK   64  A    between atoms: _152  and  _155
REMARK   65  A    between atoms: _155  and  _156
REMARK   66  A    between atoms: _159  and  _161
REMARK   67  A    between atoms: _161  and  _162
REMARK   68  A    between atoms: _161  and  _164
REMARK   69  A    between atoms: _164  and  _165
REMARK   70  A    between atoms: _170  and  _171
REMARK   71  A    between atoms: _173  and  _175
REMARK   72  A    between atoms: _175  and  _176
REMARK   73  A    between atoms: _175  and  _178
REMARK   74  A    between atoms: _178  and  _179
REMARK   75  A    between atoms: _182  and  _184
REMARK   76  A    between atoms: _184  and  _185
REMARK   77  A    between atoms: _184  and  _187
REMARK   78  A    between atoms: _187  and  _188
REMARK   79  A    between atoms: _194  and  _196
REMARK   80  A    between atoms: _196  and  _197
REMARK   81  A    between atoms: _196  and  _199
REMARK   82  A    between atoms: _199  and  _200
REMARK   83  A    between atoms: _205  and  _206
REMARK   84  A    between atoms: _208  and  _210
REMARK   85  A    between atoms: _210  and  _211
REMARK   86  A    between atoms: _213  and  _215
REMARK   87  A    between atoms: _215  and  _216
REMARK   88  A    between atoms: _218  and  _220
REMARK   89  A    between atoms: _220  and  _221
REMARK   90  A    between atoms: _220  and  _223
REMARK   91  A    between atoms: _223  and  _224
REMARK   92  A    between atoms: _234  and  _236
REMARK   93  A    between atoms: _236  and  _237
REMARK   94  A    between atoms: _236  and  _239
REMARK   95  A    between atoms: _239  and  _240
REMARK   96  A    between atoms: _245  and  _247
REMARK   97  A    between atoms: _247  and  _248
REMARK   98  A    between atoms: _247  and  _250
REMARK   99  A    between atoms: _250  and  _251
REMARK  100  A    between atoms: _251  and  _252
REMARK  101  A    between atoms: _257  and  _259
REMARK  102  A    between atoms: _259  and  _260
REMARK  103  A    between atoms: _263  and  _265
REMARK  104  A    between atoms: _265  and  _266
REMARK  105  A    between atoms: _265  and  _268
REMARK  106  A    between atoms: _268  and  _269
REMARK  107  A    between atoms: _274  and  _275
REMARK  108  A    between atoms: _277  and  _279
REMARK  109  A    between atoms: _279  and  _280
REMARK  110  A    between atoms: _279  and  _282
REMARK  111  A    between atoms: _282  and  _283
REMARK  112  A    between atoms: _286  and  _288
REMARK  113  A    between atoms: _288  and  _289
REMARK  114  A    between atoms: _288  and  _291
REMARK  115  A    between atoms: _291  and  _292
REMARK  116  A    between atoms: _297  and  _298
REMARK  117  A    between atoms: _300  and  _302
REMARK  118  A    between atoms: _302  and  _303
REMARK  119  A    between atoms: _302  and  _305
REMARK  120  A    between atoms: _305  and  _306
REMARK  121  A    between atoms: _306  and  _307
REMARK  122  A    between atoms: _307  and  _308
REMARK  123  A    between atoms: _317  and  _319
REMARK  124  A    between atoms: _319  and  _320
REMARK  125  A    between atoms: _319  and  _322
REMARK  126  A    between atoms: _322  and  _323
REMARK  127  A    between atoms: _323  and  _324
REMARK  128  A    between atoms: _324  and  _325
REMARK  129  A    between atoms: _325  and  _326
REMARK  130  A    between atoms: _330  and  _332
REMARK  131  A    between atoms: _332  and  _333
REMARK  132  A    between atoms: _332  and  _335
REMARK  133  A    between atoms: _335  and  _336
REMARK  134  A    between atoms: _336  and  _337
REMARK  135  A    between atoms: _340  and  _342
REMARK  136  A    between atoms: _342  and  _343
REMARK  137  A    between atoms: _342  and  _345
REMARK  138  A    between atoms: _348  and  _350
REMARK  139  A    between atoms: _350  and  _351
REMARK  140  A    between atoms: _350  and  _353
REMARK  141  A    between atoms: _353  and  _354
REMARK                            x       y       z     vdW  Elec       q    Type
REMARK                         _______ _______ _______ _____ _____    ______ ____
ROOT
ATOM      1  O   HOH     1      -2.886 -15.469  -5.815  0.00  0.00    +0.000 OA
ENDROOT
TORSDOF 0
REMARK  Name = ../refined-set-2016/3arr/3arr_pocket.pdb
REMARK  141 active torsions:
REMARK  status: ('A' for Active; 'I' for Inactive)
REMARK    1  A    between atoms: _1  and  _3
REMARK    2  A    between atoms: _3  and  _4
REMARK    3  A    between atoms: _3  and  _6
REMARK    4  A    between atoms: _6  and  _7
REMARK    5  A    between atoms: _17  and  _19
REMARK    6  A    between atoms: _19  and  _20
REMARK    7  A    between atoms: _19  and  _22
REMARK    8  A    between atoms: _22  and  _23
REMARK    9  A    between atoms: _26  and  _28
REMARK   10  A    between atoms: _28  and  _29
REMARK   11  A    between atoms: _28  and  _31
REMARK   12  A    between atoms: _31  and  _32
REMARK   13  A    between atoms: _32  and  _33
REMARK   14  A    between atoms: _36  and  _38
REMARK   15  A    between atoms: _38  and  _39
REMARK   16  A    between atoms: _38  and  _41
REMARK   17  A    between atoms: _41  and  _42
REMARK   18  A    between atoms: _48  and  _50
REMARK   19  A    between atoms: _50  and  _51
REMARK   20  A    between atoms: _53  and  _55
REMARK   21  A    between atoms: _55  and  _56
REMARK   22  A    between atoms: _58  and  _60
REMARK   23  A    between atoms: _60  and  _61
REMARK   24  A    between atoms: _63  and  _65
REMARK   25  A    between atoms: _65  and  _66
REMARK   26  A    between atoms: _69  and  _71
REMARK   27  A    between atoms: _71  and  _72
REMARK   28  A    between atoms: _71  and  _74
REMARK   29  A    between atoms: _74  and  _75
REMARK   30  A    between atoms: _78  and  _80
REMARK   31  A    between atoms: _80  and  _81
REMARK   32  A    between atoms: _83  and  _85
REMARK   33  A    between atoms: _85  and  _86
REMARK   34  A    between atoms: _85  and  _88
REMARK   35  A    between atoms: _91  and  _93
REMARK   36  A    between atoms: _93  and  _94
REMARK   37  A    between atoms: _96  and  _98
REMARK   38  A    between atoms: _98  and  _99
REMARK   39  A    between atoms: _98  and  _101
REMARK   40  A    between atoms: _101  and  _102
REMARK   41  A    between atoms: _107  and  _108
REMARK   42  A    between atoms: _110  and  _112
REMARK   43  A    between atoms: _112  and  _113
REMARK   44  A    between atoms: _112  and  _115
REMARK   45  A    between atoms: _115  and  _116
REMARK   46  A    between atoms: _119  and  _121
REMARK   47  A    between atoms: _121  and  _122
REMARK   48  A    between atoms: _121  and  _124
REMARK   49  A    between atoms: _124  and  _125
REMARK   50  A    between atoms: _125  and  _126
REMARK   51  A    between atoms: _126  and  _127
REMARK   52  A    between atoms: _127  and  _128
REMARK   53  A    between atoms: _132  and  _134
REMARK   54  A    between atoms: _134  and  _135
REMARK   55  A    between atoms: _134  and  _137
REMARK   56  A    between atoms: _137  and  _138
REMARK   57  A    between atoms: _141  and  _143
REMARK   58  A    between atoms: _143  and  _144
REMARK   59  A    between atoms: _143  and  _146
REMARK   60  A    between atoms: _146  and  _147
REMARK   61  A    between atoms: _147  and  _148
REMARK   62  A    between atoms: _150  and  _152
REMARK   63  A    between atoms: _152  and  _153
REMARK   64  A    between atoms: _152  and  _155
REMARK   65  A    between atoms: _155  and  _156
REMARK   66  A    between atoms: _159  and  _161
REMARK   67  A    between atoms: _161  and  _162
REMARK   68  A    between atoms: _161  and  _164
REMARK   69  A    between atoms: _164  and  _165
REMARK   70  A    between atoms: _170  and  _171
REMARK   71  A    between atoms: _173  and  _175
REMARK   72  A    between atoms: _175  and  _176
REMARK   73  A    between atoms: _175  and  _178
REMARK   74  A    between atoms: _178  and  _179
REMARK   75  A    between atoms: _182  and  _184
REMARK   76  A    between atoms: _184  and  _185
REMARK   77  A    between atoms: _184  and  _187
REMARK   78  A    between atoms: _187  and  _188
REMARK   79  A    between atoms: _194  and  _196
REMARK   80  A    between atoms: _196  and  _197
REMARK   81  A    between atoms: _196  and  _199
REMARK   82  A    between atoms: _199  and  _200
REMARK   83  A    between atoms: _205  and  _206
REMARK   84  A    between atoms: _208  and  _210
REMARK   85  A    between atoms: _210  and  _211
REMARK   86  A    between atoms: _213  and  _215
REMARK   87  A    between atoms: _215  and  _216
REMARK   88  A    between atoms: _218  and  _220
REMARK   89  A    between atoms: _220  and  _221
REMARK   90  A    between atoms: _220  and  _223
REMARK   91  A    between atoms: _223  and  _224
REMARK   92  A    between atoms: _234  and  _236
REMARK   93  A    between atoms: _236  and  _237
REMARK   94  A    between atoms: _236  and  _239
REMARK   95  A    between atoms: _239  and  _240
REMARK   96  A    between atoms: _245  and  _247
REMARK   97  A    between atoms: _247  and  _248
REMARK   98  A    between atoms: _247  and  _250
REMARK   99  A    between atoms: _250  and  _251
REMARK  100  A    between atoms: _251  and  _252
REMARK  101  A    between atoms: _257  and  _259
REMARK  102  A    between atoms: _259  and  _260
REMARK  103  A    between atoms: _263  and  _265
REMARK  104  A    between atoms: _265  and  _266
REMARK  105  A    between atoms: _265  and  _268
REMARK  106  A    between atoms: _268  and  _269
REMARK  107  A    between atoms: _274  and  _275
REMARK  108  A    between atoms: _277  and  _279
REMARK  109  A    between atoms: _279  and  _280
REMARK  110  A    between atoms: _279  and  _282
REMARK  111  A    between atoms: _282  and  _283
REMARK  112  A    between atoms: _286  and  _288
REMARK  113  A    between atoms: _288  and  _289
REMARK  114  A    between atoms: _288  and  _291
REMARK  115  A    between atoms: _291  and  _292
REMARK  116  A    between atoms: _297  and  _298
REMARK  117  A    between atoms: _300  and  _302
REMARK  118  A    between atoms: _302  and  _303
REMARK  119  A    between atoms: _302  and  _305
REMARK  120  A    between atoms: _305  and  _306
REMARK  121  A    between atoms: _306  and  _307
REMARK  122  A    between atoms: _307  and  _308
REMARK  123  A    between atoms: _317  and  _319
REMARK  124  A    between atoms: _319  and  _320
REMARK  125  A    between atoms: _319  and  _322
REMARK  126  A    between atoms: _322  and  _323
REMARK  127  A    between atoms: _323  and  _324
REMARK  128  A    between atoms: _324  and  _325
REMARK  129  A    between atoms: _325  and  _326
REMARK  130  A    between atoms: _330  and  _332
REMARK  131  A    between atoms: _332  and  _333
REMARK  132  A    between atoms: _332  and  _335
REMARK  133  A    between atoms: _335  and  _336
REMARK  134  A    between atoms: _336  and  _337
REMARK  135  A    between atoms: _340  and  _342
REMARK  136  A    between atoms: _342  and  _343
REMARK  137  A    between atoms: _342  and  _345
REMARK  138  A    between atoms: _348  and  _350
REMARK  139  A    between atoms: _350  and  _351
REMARK  140  A    between atoms: _350  and  _353
REMARK  141  A    between atoms: _353  and  _354
REMARK                            x       y       z     vdW  Elec       q    Type
REMARK                         _______ _______ _______ _____ _____    ______ ____
ROOT
ATOM      1  O   HOH     1       4.519 -15.690  -1.238  0.00  0.00    +0.000 OA
ENDROOT
TORSDOF 0
REMARK  Name = ../refined-set-2016/3arr/3arr_pocket.pdb
REMARK  141 active torsions:
REMARK  status: ('A' for Active; 'I' for Inactive)
REMARK    1  A    between atoms: _1  and  _3
REMARK    2  A    between atoms: _3  and  _4
REMARK    3  A    between atoms: _3  and  _6
REMARK    4  A    between atoms: _6  and  _7
REMARK    5  A    between atoms: _17  and  _19
REMARK    6  A    between atoms: _19  and  _20
REMARK    7  A    between atoms: _19  and  _22
REMARK    8  A    between atoms: _22  and  _23
REMARK    9  A    between atoms: _26  and  _28
REMARK   10  A    between atoms: _28  and  _29
REMARK   11  A    between atoms: _28  and  _31
REMARK   12  A    between atoms: _31  and  _32
REMARK   13  A    between atoms: _32  and  _33
REMARK   14  A    between atoms: _36  and  _38
REMARK   15  A    between atoms: _38  and  _39
REMARK   16  A    between atoms: _38  and  _41
REMARK   17  A    between atoms: _41  and  _42
REMARK   18  A    between atoms: _48  and  _50
REMARK   19  A    between atoms: _50  and  _51
REMARK   20  A    between atoms: _53  and  _55
REMARK   21  A    between atoms: _55  and  _56
REMARK   22  A    between atoms: _58  and  _60
REMARK   23  A    between atoms: _60  and  _61
REMARK   24  A    between atoms: _63  and  _65
REMARK   25  A    between atoms: _65  and  _66
REMARK   26  A    between atoms: _69  and  _71
REMARK   27  A    between atoms: _71  and  _72
REMARK   28  A    between atoms: _71  and  _74
REMARK   29  A    between atoms: _74  and  _75
REMARK   30  A    between atoms: _78  and  _80
REMARK   31  A    between atoms: _80  and  _81
REMARK   32  A    between atoms: _83  and  _85
REMARK   33  A    between atoms: _85  and  _86
REMARK   34  A    between atoms: _85  and  _88
REMARK   35  A    between atoms: _91  and  _93
REMARK   36  A    between atoms: _93  and  _94
REMARK   37  A    between atoms: _96  and  _98
REMARK   38  A    between atoms: _98  and  _99
REMARK   39  A    between atoms: _98  and  _101
REMARK   40  A    between atoms: _101  and  _102
REMARK   41  A    between atoms: _107  and  _108
REMARK   42  A    between atoms: _110  and  _112
REMARK   43  A    between atoms: _112  and  _113
REMARK   44  A    between atoms: _112  and  _115
REMARK   45  A    between atoms: _115  and  _116
REMARK   46  A    between atoms: _119  and  _121
REMARK   47  A    between atoms: _121  and  _122
REMARK   48  A    between atoms: _121  and  _124
REMARK   49  A    between atoms: _124  and  _125
REMARK   50  A    between atoms: _125  and  _126
REMARK   51  A    between atoms: _126  and  _127
REMARK   52  A    between atoms: _127  and  _128
REMARK   53  A    between atoms: _132  and  _134
REMARK   54  A    between atoms: _134  and  _135
REMARK   55  A    between atoms: _134  and  _137
REMARK   56  A    between atoms: _137  and  _138
REMARK   57  A    between atoms: _141  and  _143
REMARK   58  A    between atoms: _143  and  _144
REMARK   59  A    between atoms: _143  and  _146
REMARK   60  A    between atoms: _146  and  _147
REMARK   61  A    between atoms: _147  and  _148
REMARK   62  A    between atoms: _150  and  _152
REMARK   63  A    between atoms: _152  and  _153
REMARK   64  A    between atoms: _152  and  _155
REMARK   65  A    between atoms: _155  and  _156
REMARK   66  A    between atoms: _159  and  _161
REMARK   67  A    between atoms: _161  and  _162
REMARK   68  A    between atoms: _161  and  _164
REMARK   69  A    between atoms: _164  and  _165
REMARK   70  A    between atoms: _170  and  _171
REMARK   71  A    between atoms: _173  and  _175
REMARK   72  A    between atoms: _175  and  _176
REMARK   73  A    between atoms: _175  and  _178
REMARK   74  A    between atoms: _178  and  _179
REMARK   75  A    between atoms: _182  and  _184
REMARK   76  A    between atoms: _184  and  _185
REMARK   77  A    between atoms: _184  and  _187
REMARK   78  A    between atoms: _187  and  _188
REMARK   79  A    between atoms: _194  and  _196
REMARK   80  A    between atoms: _196  and  _197
REMARK   81  A    between atoms: _196  and  _199
REMARK   82  A    between atoms: _199  and  _200
REMARK   83  A    between atoms: _205  and  _206
REMARK   84  A    between atoms: _208  and  _210
REMARK   85  A    between atoms: _210  and  _211
REMARK   86  A    between atoms: _213  and  _215
REMARK   87  A    between atoms: _215  and  _216
REMARK   88  A    between atoms: _218  and  _220
REMARK   89  A    between atoms: _220  and  _221
REMARK   90  A    between atoms: _220  and  _223
REMARK   91  A    between atoms: _223  and  _224
REMARK   92  A    between atoms: _234  and  _236
REMARK   93  A    between atoms: _236  and  _237
REMARK   94  A    between atoms: _236  and  _239
REMARK   95  A    between atoms: _239  and  _240
REMARK   96  A    between atoms: _245  and  _247
REMARK   97  A    between atoms: _247  and  _248
REMARK   98  A    between atoms: _247  and  _250
REMARK   99  A    between atoms: _250  and  _251
REMARK  100  A    between atoms: _251  and  _252
REMARK  101  A    between atoms: _257  and  _259
REMARK  102  A    between atoms: _259  and  _260
REMARK  103  A    between atoms: _263  and  _265
REMARK  104  A    between atoms: _265  and  _266
REMARK  105  A    between atoms: _265  and  _268
REMARK  106  A    between atoms: _268  and  _269
REMARK  107  A    between atoms: _274  and  _275
REMARK  108  A    between atoms: _277  and  _279
REMARK  109  A    between atoms: _279  and  _280
REMARK  110  A    between atoms: _279  and  _282
REMARK  111  A    between atoms: _282  and  _283
REMARK  112  A    between atoms: _286  and  _288
REMARK  113  A    between atoms: _288  and  _289
REMARK  114  A    between atoms: _288  and  _291
REMARK  115  A    between atoms: _291  and  _292
REMARK  116  A    between atoms: _297  and  _298
REMARK  117  A    between atoms: _300  and  _302
REMARK  118  A    between atoms: _302  and  _303
REMARK  119  A    between atoms: _302  and  _305
REMARK  120  A    between atoms: _305  and  _306
REMARK  121  A    between atoms: _306  and  _307
REMARK  122  A    between atoms: _307  and  _308
REMARK  123  A    between atoms: _317  and  _319
REMARK  124  A    between atoms: _319  and  _320
REMARK  125  A    between atoms: _319  and  _322
REMARK  126  A    between atoms: _322  and  _323
REMARK  127  A    between atoms: _323  and  _324
REMARK  128  A    between atoms: _324  and  _325
REMARK  129  A    between atoms: _325  and  _326
REMARK  130  A    between atoms: _330  and  _332
REMARK  131  A    between atoms: _332  and  _333
REMARK  132  A    between atoms: _332  and  _335
REMARK  133  A    between atoms: _335  and  _336
REMARK  134  A    between atoms: _336  and  _337
REMARK  135  A    between atoms: _340  and  _342
REMARK  136  A    between atoms: _342  and  _343
REMARK  137  A    between atoms: _342  and  _345
REMARK  138  A    between atoms: _348  and  _350
REMARK  139  A    between atoms: _350  and  _351
REMARK  140  A    between atoms: _350  and  _353
REMARK  141  A    between atoms: _353  and  _354
REMARK                            x       y       z     vdW  Elec       q    Type
REMARK                         _______ _______ _______ _____ _____    ______ ____
ROOT
ATOM      1  O   HOH     1     -11.354  -2.427   0.429  0.00  0.00    +0.000 OA
ENDROOT
TORSDOF 0
REMARK  Name = ../refined-set-2016/3arr/3arr_pocket.pdb
REMARK  141 active torsions:
REMARK  status: ('A' for Active; 'I' for Inactive)
REMARK    1  A    between atoms: _1  and  _3
REMARK    2  A    between atoms: _3  and  _4
REMARK    3  A    between atoms: _3  and  _6
REMARK    4  A    between atoms: _6  and  _7
REMARK    5  A    between atoms: _17  and  _19
REMARK    6  A    between atoms: _19  and  _20
REMARK    7  A    between atoms: _19  and  _22
REMARK    8  A    between atoms: _22  and  _23
REMARK    9  A    between atoms: _26  and  _28
REMARK   10  A    between atoms: _28  and  _29
REMARK   11  A    between atoms: _28  and  _31
REMARK   12  A    between atoms: _31  and  _32
REMARK   13  A    between atoms: _32  and  _33
REMARK   14  A    between atoms: _36  and  _38
REMARK   15  A    between atoms: _38  and  _39
REMARK   16  A    between atoms: _38  and  _41
REMARK   17  A    between atoms: _41  and  _42
REMARK   18  A    between atoms: _48  and  _50
REMARK   19  A    between atoms: _50  and  _51
REMARK   20  A    between atoms: _53  and  _55
REMARK   21  A    between atoms: _55  and  _56
REMARK   22  A    between atoms: _58  and  _60
REMARK   23  A    between atoms: _60  and  _61
REMARK   24  A    between atoms: _63  and  _65
REMARK   25  A    between atoms: _65  and  _66
REMARK   26  A    between atoms: _69  and  _71
REMARK   27  A    between atoms: _71  and  _72
REMARK   28  A    between atoms: _71  and  _74
REMARK   29  A    between atoms: _74  and  _75
REMARK   30  A    between atoms: _78  and  _80
REMARK   31  A    between atoms: _80  and  _81
REMARK   32  A    between atoms: _83  and  _85
REMARK   33  A    between atoms: _85  and  _86
REMARK   34  A    between atoms: _85  and  _88
REMARK   35  A    between atoms: _91  and  _93
REMARK   36  A    between atoms: _93  and  _94
REMARK   37  A    between atoms: _96  and  _98
REMARK   38  A    between atoms: _98  and  _99
REMARK   39  A    between atoms: _98  and  _101
REMARK   40  A    between atoms: _101  and  _102
REMARK   41  A    between atoms: _107  and  _108
REMARK   42  A    between atoms: _110  and  _112
REMARK   43  A    between atoms: _112  and  _113
REMARK   44  A    between atoms: _112  and  _115
REMARK   45  A    between atoms: _115  and  _116
REMARK   46  A    between atoms: _119  and  _121
REMARK   47  A    between atoms: _121  and  _122
REMARK   48  A    between atoms: _121  and  _124
REMARK   49  A    between atoms: _124  and  _125
REMARK   50  A    between atoms: _125  and  _126
REMARK   51  A    between atoms: _126  and  _127
REMARK   52  A    between atoms: _127  and  _128
REMARK   53  A    between atoms: _132  and  _134
REMARK   54  A    between atoms: _134  and  _135
REMARK   55  A    between atoms: _134  and  _137
REMARK   56  A    between atoms: _137  and  _138
REMARK   57  A    between atoms: _141  and  _143
REMARK   58  A    between atoms: _143  and  _144
REMARK   59  A    between atoms: _143  and  _146
REMARK   60  A    between atoms: _146  and  _147
REMARK   61  A    between atoms: _147  and  _148
REMARK   62  A    between atoms: _150  and  _152
REMARK   63  A    between atoms: _152  and  _153
REMARK   64  A    between atoms: _152  and  _155
REMARK   65  A    between atoms: _155  and  _156
REMARK   66  A    between atoms: _159  and  _161
REMARK   67  A    between atoms: _161  and  _162
REMARK   68  A    between atoms: _161  and  _164
REMARK   69  A    between atoms: _164  and  _165
REMARK   70  A    between atoms: _170  and  _171
REMARK   71  A    between atoms: _173  and  _175
REMARK   72  A    between atoms: _175  and  _176
REMARK   73  A    between atoms: _175  and  _178
REMARK   74  A    between atoms: _178  and  _179
REMARK   75  A    between atoms: _182  and  _184
REMARK   76  A    between atoms: _184  and  _185
REMARK   77  A    between atoms: _184  and  _187
REMARK   78  A    between atoms: _187  and  _188
REMARK   79  A    between atoms: _194  and  _196
REMARK   80  A    between atoms: _196  and  _197
REMARK   81  A    between atoms: _196  and  _199
REMARK   82  A    between atoms: _199  and  _200
REMARK   83  A    between atoms: _205  and  _206
REMARK   84  A    between atoms: _208  and  _210
REMARK   85  A    between atoms: _210  and  _211
REMARK   86  A    between atoms: _213  and  _215
REMARK   87  A    between atoms: _215  and  _216
REMARK   88  A    between atoms: _218  and  _220
REMARK   89  A    between atoms: _220  and  _221
REMARK   90  A    between atoms: _220  and  _223
REMARK   91  A    between atoms: _223  and  _224
REMARK   92  A    between atoms: _234  and  _236
REMARK   93  A    between atoms: _236  and  _237
REMARK   94  A    between atoms: _236  and  _239
REMARK   95  A    between atoms: _239  and  _240
REMARK   96  A    between atoms: _245  and  _247
REMARK   97  A    between atoms: _247  and  _248
REMARK   98  A    between atoms: _247  and  _250
REMARK   99  A    between atoms: _250  and  _251
REMARK  100  A    between atoms: _251  and  _252
REMARK  101  A    between atoms: _257  and  _259
REMARK  102  A    between atoms: _259  and  _260
REMARK  103  A    between atoms: _263  and  _265
REMARK  104  A    between atoms: _265  and  _266
REMARK  105  A    between atoms: _265  and  _268
REMARK  106  A    between atoms: _268  and  _269
REMARK  107  A    between atoms: _274  and  _275
REMARK  108  A    between atoms: _277  and  _279
REMARK  109  A    between atoms: _279  and  _280
REMARK  110  A    between atoms: _279  and  _282
REMARK  111  A    between atoms: _282  and  _283
REMARK  112  A    between atoms: _286  and  _288
REMARK  113  A    between atoms: _288  and  _289
REMARK  114  A    between atoms: _288  and  _291
REMARK  115  A    between atoms: _291  and  _292
REMARK  116  A    between atoms: _297  and  _298
REMARK  117  A    between atoms: _300  and  _302
REMARK  118  A    between atoms: _302  and  _303
REMARK  119  A    between atoms: _302  and  _305
REMARK  120  A    between atoms: _305  and  _306
REMARK  121  A    between atoms: _306  and  _307
REMARK  122  A    between atoms: _307  and  _308
REMARK  123  A    between atoms: _317  and  _319
REMARK  124  A    between atoms: _319  and  _320
REMARK  125  A    between atoms: _319  and  _322
REMARK  126  A    between atoms: _322  and  _323
REMARK  127  A    between atoms: _323  and  _324
REMARK  128  A    between atoms: _324  and  _325
REMARK  129  A    between atoms: _325  and  _326
REMARK  130  A    between atoms: _330  and  _332
REMARK  131  A    between atoms: _332  and  _333
REMARK  132  A    between atoms: _332  and  _335
REMARK  133  A    between atoms: _335  and  _336
REMARK  134  A    between atoms: _336  and  _337
REMARK  135  A    between atoms: _340  and  _342
REMARK  136  A    between atoms: _342  and  _343
REMARK  137  A    between atoms: _342  and  _345
REMARK  138  A    between atoms: _348  and  _350
REMARK  139  A    between atoms: _350  and  _351
REMARK  140  A    between atoms: _350  and  _353
REMARK  141  A    between atoms: _353  and  _354
REMARK                            x       y       z     vdW  Elec       q    Type
REMARK                         _______ _______ _______ _____ _____    ______ ____
ROOT
ATOM      1  O   HOH     1      -4.036 -17.830  -4.967  0.00  0.00    +0.000 OA
ENDROOT
TORSDOF 0
REMARK  Name = ../refined-set-2016/3arr/3arr_pocket.pdb
REMARK  141 active torsions:
REMARK  status: ('A' for Active; 'I' for Inactive)
REMARK    1  A    between atoms: _1  and  _3
REMARK    2  A    between atoms: _3  and  _4
REMARK    3  A    between atoms: _3  and  _6
REMARK    4  A    between atoms: _6  and  _7
REMARK    5  A    between atoms: _17  and  _19
REMARK    6  A    between atoms: _19  and  _20
REMARK    7  A    between atoms: _19  and  _22
REMARK    8  A    between atoms: _22  and  _23
REMARK    9  A    between atoms: _26  and  _28
REMARK   10  A    between atoms: _28  and  _29
REMARK   11  A    between atoms: _28  and  _31
REMARK   12  A    between atoms: _31  and  _32
REMARK   13  A    between atoms: _32  and  _33
REMARK   14  A    between atoms: _36  and  _38
REMARK   15  A    between atoms: _38  and  _39
REMARK   16  A    between atoms: _38  and  _41
REMARK   17  A    between atoms: _41  and  _42
REMARK   18  A    between atoms: _48  and  _50
REMARK   19  A    between atoms: _50  and  _51
REMARK   20  A    between atoms: _53  and  _55
REMARK   21  A    between atoms: _55  and  _56
REMARK   22  A    between atoms: _58  and  _60
REMARK   23  A    between atoms: _60  and  _61
REMARK   24  A    between atoms: _63  and  _65
REMARK   25  A    between atoms: _65  and  _66
REMARK   26  A    between atoms: _69  and  _71
REMARK   27  A    between atoms: _71  and  _72
REMARK   28  A    between atoms: _71  and  _74
REMARK   29  A    between atoms: _74  and  _75
REMARK   30  A    between atoms: _78  and  _80
REMARK   31  A    between atoms: _80  and  _81
REMARK   32  A    between atoms: _83  and  _85
REMARK   33  A    between atoms: _85  and  _86
REMARK   34  A    between atoms: _85  and  _88
REMARK   35  A    between atoms: _91  and  _93
REMARK   36  A    between atoms: _93  and  _94
REMARK   37  A    between atoms: _96  and  _98
REMARK   38  A    between atoms: _98  and  _99
REMARK   39  A    between atoms: _98  and  _101
REMARK   40  A    between atoms: _101  and  _102
REMARK   41  A    between atoms: _107  and  _108
REMARK   42  A    between atoms: _110  and  _112
REMARK   43  A    between atoms: _112  and  _113
REMARK   44  A    between atoms: _112  and  _115
REMARK   45  A    between atoms: _115  and  _116
REMARK   46  A    between atoms: _119  and  _121
REMARK   47  A    between atoms: _121  and  _122
REMARK   48  A    between atoms: _121  and  _124
REMARK   49  A    between atoms: _124  and  _125
REMARK   50  A    between atoms: _125  and  _126
REMARK   51  A    between atoms: _126  and  _127
REMARK   52  A    between atoms: _127  and  _128
REMARK   53  A    between atoms: _132  and  _134
REMARK   54  A    between atoms: _134  and  _135
REMARK   55  A    between atoms: _134  and  _137
REMARK   56  A    between atoms: _137  and  _138
REMARK   57  A    between atoms: _141  and  _143
REMARK   58  A    between atoms: _143  and  _144
REMARK   59  A    between atoms: _143  and  _146
REMARK   60  A    between atoms: _146  and  _147
REMARK   61  A    between atoms: _147  and  _148
REMARK   62  A    between atoms: _150  and  _152
REMARK   63  A    between atoms: _152  and  _153
REMARK   64  A    between atoms: _152  and  _155
REMARK   65  A    between atoms: _155  and  _156
REMARK   66  A    between atoms: _159  and  _161
REMARK   67  A    between atoms: _161  and  _162
REMARK   68  A    between atoms: _161  and  _164
REMARK   69  A    between atoms: _164  and  _165
REMARK   70  A    between atoms: _170  and  _171
REMARK   71  A    between atoms: _173  and  _175
REMARK   72  A    between atoms: _175  and  _176
REMARK   73  A    between atoms: _175  and  _178
REMARK   74  A    between atoms: _178  and  _179
REMARK   75  A    between atoms: _182  and  _184
REMARK   76  A    between atoms: _184  and  _185
REMARK   77  A    between atoms: _184  and  _187
REMARK   78  A    between atoms: _187  and  _188
REMARK   79  A    between atoms: _194  and  _196
REMARK   80  A    between atoms: _196  and  _197
REMARK   81  A    between atoms: _196  and  _199
REMARK   82  A    between atoms: _199  and  _200
REMARK   83  A    between atoms: _205  and  _206
REMARK   84  A    between atoms: _208  and  _210
REMARK   85  A    between atoms: _210  and  _211
REMARK   86  A    between atoms: _213  and  _215
REMARK   87  A    between atoms: _215  and  _216
REMARK   88  A    between atoms: _218  and  _220
REMARK   89  A    between atoms: _220  and  _221
REMARK   90  A    between atoms: _220  and  _223
REMARK   91  A    between atoms: _223  and  _224
REMARK   92  A    between atoms: _234  and  _236
REMARK   93  A    between atoms: _236  and  _237
REMARK   94  A    between atoms: _236  and  _239
REMARK   95  A    between atoms: _239  and  _240
REMARK   96  A    between atoms: _245  and  _247
REMARK   97  A    between atoms: _247  and  _248
REMARK   98  A    between atoms: _247  and  _250
REMARK   99  A    between atoms: _250  and  _251
REMARK  100  A    between atoms: _251  and  _252
REMARK  101  A    between atoms: _257  and  _259
REMARK  102  A    between atoms: _259  and  _260
REMARK  103  A    between atoms: _263  and  _265
REMARK  104  A    between atoms: _265  and  _266
REMARK  105  A    between atoms: _265  and  _268
REMARK  106  A    between atoms: _268  and  _269
REMARK  107  A    between atoms: _274  and  _275
REMARK  108  A    between atoms: _277  and  _279
REMARK  109  A    between atoms: _279  and  _280
REMARK  110  A    between atoms: _279  and  _282
REMARK  111  A    between atoms: _282  and  _283
REMARK  112  A    between atoms: _286  and  _288
REMARK  113  A    between atoms: _288  and  _289
REMARK  114  A    between atoms: _288  and  _291
REMARK  115  A    between atoms: _291  and  _292
REMARK  116  A    between atoms: _297  and  _298
REMARK  117  A    between atoms: _300  and  _302
REMARK  118  A    between atoms: _302  and  _303
REMARK  119  A    between atoms: _302  and  _305
REMARK  120  A    between atoms: _305  and  _306
REMARK  121  A    between atoms: _306  and  _307
REMARK  122  A    between atoms: _307  and  _308
REMARK  123  A    between atoms: _317  and  _319
REMARK  124  A    between atoms: _319  and  _320
REMARK  125  A    between atoms: _319  and  _322
REMARK  126  A    between atoms: _322  and  _323
REMARK  127  A    between atoms: _323  and  _324
REMARK  128  A    between atoms: _324  and  _325
REMARK  129  A    between atoms: _325  and  _326
REMARK  130  A    between atoms: _330  and  _332
REMARK  131  A    between atoms: _332  and  _333
REMARK  132  A    between atoms: _332  and  _335
REMARK  133  A    between atoms: _335  and  _336
REMARK  134  A    between atoms: _336  and  _337
REMARK  135  A    between atoms: _340  and  _342
REMARK  136  A    between atoms: _342  and  _343
REMARK  137  A    between atoms: _342  and  _345
REMARK  138  A    between atoms: _348  and  _350
REMARK  139  A    between atoms: _350  and  _351
REMARK  140  A    between atoms: _350  and  _353
REMARK  141  A    between atoms: _353  and  _354
REMARK                            x       y       z     vdW  Elec       q    Type
REMARK                         _______ _______ _______ _____ _____    ______ ____
ROOT
ATOM      1  O   HOH     1      -1.006  -4.985   3.103  0.00  0.00    +0.000 OA
ENDROOT
TORSDOF 0
REMARK  Name = ../refined-set-2016/3arr/3arr_pocket.pdb
REMARK  141 active torsions:
REMARK  status: ('A' for Active; 'I' for Inactive)
REMARK    1  A    between atoms: _1  and  _3
REMARK    2  A    between atoms: _3  and  _4
REMARK    3  A    between atoms: _3  and  _6
REMARK    4  A    between atoms: _6  and  _7
REMARK    5  A    between atoms: _17  and  _19
REMARK    6  A    between atoms: _19  and  _20
REMARK    7  A    between atoms: _19  and  _22
REMARK    8  A    between atoms: _22  and  _23
REMARK    9  A    between atoms: _26  and  _28
REMARK   10  A    between atoms: _28  and  _29
REMARK   11  A    between atoms: _28  and  _31
REMARK   12  A    between atoms: _31  and  _32
REMARK   13  A    between atoms: _32  and  _33
REMARK   14  A    between atoms: _36  and  _38
REMARK   15  A    between atoms: _38  and  _39
REMARK   16  A    between atoms: _38  and  _41
REMARK   17  A    between atoms: _41  and  _42
REMARK   18  A    between atoms: _48  and  _50
REMARK   19  A    between atoms: _50  and  _51
REMARK   20  A    between atoms: _53  and  _55
REMARK   21  A    between atoms: _55  and  _56
REMARK   22  A    between atoms: _58  and  _60
REMARK   23  A    between atoms: _60  and  _61
REMARK   24  A    between atoms: _63  and  _65
REMARK   25  A    between atoms: _65  and  _66
REMARK   26  A    between atoms: _69  and  _71
REMARK   27  A    between atoms: _71  and  _72
REMARK   28  A    between atoms: _71  and  _74
REMARK   29  A    between atoms: _74  and  _75
REMARK   30  A    between atoms: _78  and  _80
REMARK   31  A    between atoms: _80  and  _81
REMARK   32  A    between atoms: _83  and  _85
REMARK   33  A    between atoms: _85  and  _86
REMARK   34  A    between atoms: _85  and  _88
REMARK   35  A    between atoms: _91  and  _93
REMARK   36  A    between atoms: _93  and  _94
REMARK   37  A    between atoms: _96  and  _98
REMARK   38  A    between atoms: _98  and  _99
REMARK   39  A    between atoms: _98  and  _101
REMARK   40  A    between atoms: _101  and  _102
REMARK   41  A    between atoms: _107  and  _108
REMARK   42  A    between atoms: _110  and  _112
REMARK   43  A    between atoms: _112  and  _113
REMARK   44  A    between atoms: _112  and  _115
REMARK   45  A    between atoms: _115  and  _116
REMARK   46  A    between atoms: _119  and  _121
REMARK   47  A    between atoms: _121  and  _122
REMARK   48  A    between atoms: _121  and  _124
REMARK   49  A    between atoms: _124  and  _125
REMARK   50  A    between atoms: _125  and  _126
REMARK   51  A    between atoms: _126  and  _127
REMARK   52  A    between atoms: _127  and  _128
REMARK   53  A    between atoms: _132  and  _134
REMARK   54  A    between atoms: _134  and  _135
REMARK   55  A    between atoms: _134  and  _137
REMARK   56  A    between atoms: _137  and  _138
REMARK   57  A    between atoms: _141  and  _143
REMARK   58  A    between atoms: _143  and  _144
REMARK   59  A    between atoms: _143  and  _146
REMARK   60  A    between atoms: _146  and  _147
REMARK   61  A    between atoms: _147  and  _148
REMARK   62  A    between atoms: _150  and  _152
REMARK   63  A    between atoms: _152  and  _153
REMARK   64  A    between atoms: _152  and  _155
REMARK   65  A    between atoms: _155  and  _156
REMARK   66  A    between atoms: _159  and  _161
REMARK   67  A    between atoms: _161  and  _162
REMARK   68  A    between atoms: _161  and  _164
REMARK   69  A    between atoms: _164  and  _165
REMARK   70  A    between atoms: _170  and  _171
REMARK   71  A    between atoms: _173  and  _175
REMARK   72  A    between atoms: _175  and  _176
REMARK   73  A    between atoms: _175  and  _178
REMARK   74  A    between atoms: _178  and  _179
REMARK   75  A    between atoms: _182  and  _184
REMARK   76  A    between atoms: _184  and  _185
REMARK   77  A    between atoms: _184  and  _187
REMARK   78  A    between atoms: _187  and  _188
REMARK   79  A    between atoms: _194  and  _196
REMARK   80  A    between atoms: _196  and  _197
REMARK   81  A    between atoms: _196  and  _199
REMARK   82  A    between atoms: _199  and  _200
REMARK   83  A    between atoms: _205  and  _206
REMARK   84  A    between atoms: _208  and  _210
REMARK   85  A    between atoms: _210  and  _211
REMARK   86  A    between atoms: _213  and  _215
REMARK   87  A    between atoms: _215  and  _216
REMARK   88  A    between atoms: _218  and  _220
REMARK   89  A    between atoms: _220  and  _221
REMARK   90  A    between atoms: _220  and  _223
REMARK   91  A    between atoms: _223  and  _224
REMARK   92  A    between atoms: _234  and  _236
REMARK   93  A    between atoms: _236  and  _237
REMARK   94  A    between atoms: _236  and  _239
REMARK   95  A    between atoms: _239  and  _240
REMARK   96  A    between atoms: _245  and  _247
REMARK   97  A    between atoms: _247  and  _248
REMARK   98  A    between atoms: _247  and  _250
REMARK   99  A    between atoms: _250  and  _251
REMARK  100  A    between atoms: _251  and  _252
REMARK  101  A    between atoms: _257  and  _259
REMARK  102  A    between atoms: _259  and  _260
REMARK  103  A    between atoms: _263  and  _265
REMARK  104  A    between atoms: _265  and  _266
REMARK  105  A    between atoms: _265  and  _268
REMARK  106  A    between atoms: _268  and  _269
REMARK  107  A    between atoms: _274  and  _275
REMARK  108  A    between atoms: _277  and  _279
REMARK  109  A    between atoms: _279  and  _280
REMARK  110  A    between atoms: _279  and  _282
REMARK  111  A    between atoms: _282  and  _283
REMARK  112  A    between atoms: _286  and  _288
REMARK  113  A    between atoms: _288  and  _289
REMARK  114  A    between atoms: _288  and  _291
REMARK  115  A    between atoms: _291  and  _292
REMARK  116  A    between atoms: _297  and  _298
REMARK  117  A    between atoms: _300  and  _302
REMARK  118  A    between atoms: _302  and  _303
REMARK  119  A    between atoms: _302  and  _305
REMARK  120  A    between atoms: _305  and  _306
REMARK  121  A    between atoms: _306  and  _307
REMARK  122  A    between atoms: _307  and  _308
REMARK  123  A    between atoms: _317  and  _319
REMARK  124  A    between atoms: _319  and  _320
REMARK  125  A    between atoms: _319  and  _322
REMARK  126  A    between atoms: _322  and  _323
REMARK  127  A    between atoms: _323  and  _324
REMARK  128  A    between atoms: _324  and  _325
REMARK  129  A    between atoms: _325  and  _326
REMARK  130  A    between atoms: _330  and  _332
REMARK  131  A    between atoms: _332  and  _333
REMARK  132  A    between atoms: _332  and  _335
REMARK  133  A    between atoms: _335  and  _336
REMARK  134  A    between atoms: _336  and  _337
REMARK  135  A    between atoms: _340  and  _342
REMARK  136  A    between atoms: _342  and  _343
REMARK  137  A    between atoms: _342  and  _345
REMARK  138  A    between atoms: _348  and  _350
REMARK  139  A    between atoms: _350  and  _351
REMARK  140  A    between atoms: _350  and  _353
REMARK  141  A    between atoms: _353  and  _354
REMARK                            x       y       z     vdW  Elec       q    Type
REMARK                         _______ _______ _______ _____ _____    ______ ____
ROOT
ATOM      1  O   HOH     1      -0.953  -7.493   2.166  0.00  0.00    +0.000 OA
ENDROOT
TORSDOF 0
REMARK  Name = ../refined-set-2016/3arr/3arr_pocket.pdb
REMARK  141 active torsions:
REMARK  status: ('A' for Active; 'I' for Inactive)
REMARK    1  A    between atoms: _1  and  _3
REMARK    2  A    between atoms: _3  and  _4
REMARK    3  A    between atoms: _3  and  _6
REMARK    4  A    between atoms: _6  and  _7
REMARK    5  A    between atoms: _17  and  _19
REMARK    6  A    between atoms: _19  and  _20
REMARK    7  A    between atoms: _19  and  _22
REMARK    8  A    between atoms: _22  and  _23
REMARK    9  A    between atoms: _26  and  _28
REMARK   10  A    between atoms: _28  and  _29
REMARK   11  A    between atoms: _28  and  _31
REMARK   12  A    between atoms: _31  and  _32
REMARK   13  A    between atoms: _32  and  _33
REMARK   14  A    between atoms: _36  and  _38
REMARK   15  A    between atoms: _38  and  _39
REMARK   16  A    between atoms: _38  and  _41
REMARK   17  A    between atoms: _41  and  _42
REMARK   18  A    between atoms: _48  and  _50
REMARK   19  A    between atoms: _50  and  _51
REMARK   20  A    between atoms: _53  and  _55
REMARK   21  A    between atoms: _55  and  _56
REMARK   22  A    between atoms: _58  and  _60
REMARK   23  A    between atoms: _60  and  _61
REMARK   24  A    between atoms: _63  and  _65
REMARK   25  A    between atoms: _65  and  _66
REMARK   26  A    between atoms: _69  and  _71
REMARK   27  A    between atoms: _71  and  _72
REMARK   28  A    between atoms: _71  and  _74
REMARK   29  A    between atoms: _74  and  _75
REMARK   30  A    between atoms: _78  and  _80
REMARK   31  A    between atoms: _80  and  _81
REMARK   32  A    between atoms: _83  and  _85
REMARK   33  A    between atoms: _85  and  _86
REMARK   34  A    between atoms: _85  and  _88
REMARK   35  A    between atoms: _91  and  _93
REMARK   36  A    between atoms: _93  and  _94
REMARK   37  A    between atoms: _96  and  _98
REMARK   38  A    between atoms: _98  and  _99
REMARK   39  A    between atoms: _98  and  _101
REMARK   40  A    between atoms: _101  and  _102
REMARK   41  A    between atoms: _107  and  _108
REMARK   42  A    between atoms: _110  and  _112
REMARK   43  A    between atoms: _112  and  _113
REMARK   44  A    between atoms: _112  and  _115
REMARK   45  A    between atoms: _115  and  _116
REMARK   46  A    between atoms: _119  and  _121
REMARK   47  A    between atoms: _121  and  _122
REMARK   48  A    between atoms: _121  and  _124
REMARK   49  A    between atoms: _124  and  _125
REMARK   50  A    between atoms: _125  and  _126
REMARK   51  A    between atoms: _126  and  _127
REMARK   52  A    between atoms: _127  and  _128
REMARK   53  A    between atoms: _132  and  _134
REMARK   54  A    between atoms: _134  and  _135
REMARK   55  A    between atoms: _134  and  _137
REMARK   56  A    between atoms: _137  and  _138
REMARK   57  A    between atoms: _141  and  _143
REMARK   58  A    between atoms: _143  and  _144
REMARK   59  A    between atoms: _143  and  _146
REMARK   60  A    between atoms: _146  and  _147
REMARK   61  A    between atoms: _147  and  _148
REMARK   62  A    between atoms: _150  and  _152
REMARK   63  A    between atoms: _152  and  _153
REMARK   64  A    between atoms: _152  and  _155
REMARK   65  A    between atoms: _155  and  _156
REMARK   66  A    between atoms: _159  and  _161
REMARK   67  A    between atoms: _161  and  _162
REMARK   68  A    between atoms: _161  and  _164
REMARK   69  A    between atoms: _164  and  _165
REMARK   70  A    between atoms: _170  and  _171
REMARK   71  A    between atoms: _173  and  _175
REMARK   72  A    between atoms: _175  and  _176
REMARK   73  A    between atoms: _175  and  _178
REMARK   74  A    between atoms: _178  and  _179
REMARK   75  A    between atoms: _182  and  _184
REMARK   76  A    between atoms: _184  and  _185
REMARK   77  A    between atoms: _184  and  _187
REMARK   78  A    between atoms: _187  and  _188
REMARK   79  A    between atoms: _194  and  _196
REMARK   80  A    between atoms: _196  and  _197
REMARK   81  A    between atoms: _196  and  _199
REMARK   82  A    between atoms: _199  and  _200
REMARK   83  A    between atoms: _205  and  _206
REMARK   84  A    between atoms: _208  and  _210
REMARK   85  A    between atoms: _210  and  _211
REMARK   86  A    between atoms: _213  and  _215
REMARK   87  A    between atoms: _215  and  _216
REMARK   88  A    between atoms: _218  and  _220
REMARK   89  A    between atoms: _220  and  _221
REMARK   90  A    between atoms: _220  and  _223
REMARK   91  A    between atoms: _223  and  _224
REMARK   92  A    between atoms: _234  and  _236
REMARK   93  A    between atoms: _236  and  _237
REMARK   94  A    between atoms: _236  and  _239
REMARK   95  A    between atoms: _239  and  _240
REMARK   96  A    between atoms: _245  and  _247
REMARK   97  A    between atoms: _247  and  _248
REMARK   98  A    between atoms: _247  and  _250
REMARK   99  A    between atoms: _250  and  _251
REMARK  100  A    between atoms: _251  and  _252
REMARK  101  A    between atoms: _257  and  _259
REMARK  102  A    between atoms: _259  and  _260
REMARK  103  A    between atoms: _263  and  _265
REMARK  104  A    between atoms: _265  and  _266
REMARK  105  A    between atoms: _265  and  _268
REMARK  106  A    between atoms: _268  and  _269
REMARK  107  A    between atoms: _274  and  _275
REMARK  108  A    between atoms: _277  and  _279
REMARK  109  A    between atoms: _279  and  _280
REMARK  110  A    between atoms: _279  and  _282
REMARK  111  A    between atoms: _282  and  _283
REMARK  112  A    between atoms: _286  and  _288
REMARK  113  A    between atoms: _288  and  _289
REMARK  114  A    between atoms: _288  and  _291
REMARK  115  A    between atoms: _291  and  _292
REMARK  116  A    between atoms: _297  and  _298
REMARK  117  A    between atoms: _300  and  _302
REMARK  118  A    between atoms: _302  and  _303
REMARK  119  A    between atoms: _302  and  _305
REMARK  120  A    between atoms: _305  and  _306
REMARK  121  A    between atoms: _306  and  _307
REMARK  122  A    between atoms: _307  and  _308
REMARK  123  A    between atoms: _317  and  _319
REMARK  124  A    between atoms: _319  and  _320
REMARK  125  A    between atoms: _319  and  _322
REMARK  126  A    between atoms: _322  and  _323
REMARK  127  A    between atoms: _323  and  _324
REMARK  128  A    between atoms: _324  and  _325
REMARK  129  A    between atoms: _325  and  _326
REMARK  130  A    between atoms: _330  and  _332
REMARK  131  A    between atoms: _332  and  _333
REMARK  132  A    between atoms: _332  and  _335
REMARK  133  A    between atoms: _335  and  _336
REMARK  134  A    between atoms: _336  and  _337
REMARK  135  A    between atoms: _340  and  _342
REMARK  136  A    between atoms: _342  and  _343
REMARK  137  A    between atoms: _342  and  _345
REMARK  138  A    between atoms: _348  and  _350
REMARK  139  A    between atoms: _350  and  _351
REMARK  140  A    between atoms: _350  and  _353
REMARK  141  A    between atoms: _353  and  _354
REMARK                            x       y       z     vdW  Elec       q    Type
REMARK                         _______ _______ _______ _____ _____    ______ ____
ROOT
ATOM      1  O   HOH     1       3.098 -14.280   5.573  0.00  0.00    +0.000 OA
ENDROOT
TORSDOF 0
REMARK  Name = ../refined-set-2016/3arr/3arr_pocket.pdb
REMARK  141 active torsions:
REMARK  status: ('A' for Active; 'I' for Inactive)
REMARK    1  A    between atoms: _1  and  _3
REMARK    2  A    between atoms: _3  and  _4
REMARK    3  A    between atoms: _3  and  _6
REMARK    4  A    between atoms: _6  and  _7
REMARK    5  A    between atoms: _17  and  _19
REMARK    6  A    between atoms: _19  and  _20
REMARK    7  A    between atoms: _19  and  _22
REMARK    8  A    between atoms: _22  and  _23
REMARK    9  A    between atoms: _26  and  _28
REMARK   10  A    between atoms: _28  and  _29
REMARK   11  A    between atoms: _28  and  _31
REMARK   12  A    between atoms: _31  and  _32
REMARK   13  A    between atoms: _32  and  _33
REMARK   14  A    between atoms: _36  and  _38
REMARK   15  A    between atoms: _38  and  _39
REMARK   16  A    between atoms: _38  and  _41
REMARK   17  A    between atoms: _41  and  _42
REMARK   18  A    between atoms: _48  and  _50
REMARK   19  A    between atoms: _50  and  _51
REMARK   20  A    between atoms: _53  and  _55
REMARK   21  A    between atoms: _55  and  _56
REMARK   22  A    between atoms: _58  and  _60
REMARK   23  A    between atoms: _60  and  _61
REMARK   24  A    between atoms: _63  and  _65
REMARK   25  A    between atoms: _65  and  _66
REMARK   26  A    between atoms: _69  and  _71
REMARK   27  A    between atoms: _71  and  _72
REMARK   28  A    between atoms: _71  and  _74
REMARK   29  A    between atoms: _74  and  _75
REMARK   30  A    between atoms: _78  and  _80
REMARK   31  A    between atoms: _80  and  _81
REMARK   32  A    between atoms: _83  and  _85
REMARK   33  A    between atoms: _85  and  _86
REMARK   34  A    between atoms: _85  and  _88
REMARK   35  A    between atoms: _91  and  _93
REMARK   36  A    between atoms: _93  and  _94
REMARK   37  A    between atoms: _96  and  _98
REMARK   38  A    between atoms: _98  and  _99
REMARK   39  A    between atoms: _98  and  _101
REMARK   40  A    between atoms: _101  and  _102
REMARK   41  A    between atoms: _107  and  _108
REMARK   42  A    between atoms: _110  and  _112
REMARK   43  A    between atoms: _112  and  _113
REMARK   44  A    between atoms: _112  and  _115
REMARK   45  A    between atoms: _115  and  _116
REMARK   46  A    between atoms: _119  and  _121
REMARK   47  A    between atoms: _121  and  _122
REMARK   48  A    between atoms: _121  and  _124
REMARK   49  A    between atoms: _124  and  _125
REMARK   50  A    between atoms: _125  and  _126
REMARK   51  A    between atoms: _126  and  _127
REMARK   52  A    between atoms: _127  and  _128
REMARK   53  A    between atoms: _132  and  _134
REMARK   54  A    between atoms: _134  and  _135
REMARK   55  A    between atoms: _134  and  _137
REMARK   56  A    between atoms: _137  and  _138
REMARK   57  A    between atoms: _141  and  _143
REMARK   58  A    between atoms: _143  and  _144
REMARK   59  A    between atoms: _143  and  _146
REMARK   60  A    between atoms: _146  and  _147
REMARK   61  A    between atoms: _147  and  _148
REMARK   62  A    between atoms: _150  and  _152
REMARK   63  A    between atoms: _152  and  _153
REMARK   64  A    between atoms: _152  and  _155
REMARK   65  A    between atoms: _155  and  _156
REMARK   66  A    between atoms: _159  and  _161
REMARK   67  A    between atoms: _161  and  _162
REMARK   68  A    between atoms: _161  and  _164
REMARK   69  A    between atoms: _164  and  _165
REMARK   70  A    between atoms: _170  and  _171
REMARK   71  A    between atoms: _173  and  _175
REMARK   72  A    between atoms: _175  and  _176
REMARK   73  A    between atoms: _175  and  _178
REMARK   74  A    between atoms: _178  and  _179
REMARK   75  A    between atoms: _182  and  _184
REMARK   76  A    between atoms: _184  and  _185
REMARK   77  A    between atoms: _184  and  _187
REMARK   78  A    between atoms: _187  and  _188
REMARK   79  A    between atoms: _194  and  _196
REMARK   80  A    between atoms: _196  and  _197
REMARK   81  A    between atoms: _196  and  _199
REMARK   82  A    between atoms: _199  and  _200
REMARK   83  A    between atoms: _205  and  _206
REMARK   84  A    between atoms: _208  and  _210
REMARK   85  A    between atoms: _210  and  _211
REMARK   86  A    between atoms: _213  and  _215
REMARK   87  A    between atoms: _215  and  _216
REMARK   88  A    between atoms: _218  and  _220
REMARK   89  A    between atoms: _220  and  _221
REMARK   90  A    between atoms: _220  and  _223
REMARK   91  A    between atoms: _223  and  _224
REMARK   92  A    between atoms: _234  and  _236
REMARK   93  A    between atoms: _236  and  _237
REMARK   94  A    between atoms: _236  and  _239
REMARK   95  A    between atoms: _239  and  _240
REMARK   96  A    between atoms: _245  and  _247
REMARK   97  A    between atoms: _247  and  _248
REMARK   98  A    between atoms: _247  and  _250
REMARK   99  A    between atoms: _250  and  _251
REMARK  100  A    between atoms: _251  and  _252
REMARK  101  A    between atoms: _257  and  _259
REMARK  102  A    between atoms: _259  and  _260
REMARK  103  A    between atoms: _263  and  _265
REMARK  104  A    between atoms: _265  and  _266
REMARK  105  A    between atoms: _265  and  _268
REMARK  106  A    between atoms: _268  and  _269
REMARK  107  A    between atoms: _274  and  _275
REMARK  108  A    between atoms: _277  and  _279
REMARK  109  A    between atoms: _279  and  _280
REMARK  110  A    between atoms: _279  and  _282
REMARK  111  A    between atoms: _282  and  _283
REMARK  112  A    between atoms: _286  and  _288
REMARK  113  A    between atoms: _288  and  _289
REMARK  114  A    between atoms: _288  and  _291
REMARK  115  A    between atoms: _291  and  _292
REMARK  116  A    between atoms: _297  and  _298
REMARK  117  A    between atoms: _300  and  _302
REMARK  118  A    between atoms: _302  and  _303
REMARK  119  A    between atoms: _302  and  _305
REMARK  120  A    between atoms: _305  and  _306
REMARK  121  A    between atoms: _306  and  _307
REMARK  122  A    between atoms: _307  and  _308
REMARK  123  A    between atoms: _317  and  _319
REMARK  124  A    between atoms: _319  and  _320
REMARK  125  A    between atoms: _319  and  _322
REMARK  126  A    between atoms: _322  and  _323
REMARK  127  A    between atoms: _323  and  _324
REMARK  128  A    between atoms: _324  and  _325
REMARK  129  A    between atoms: _325  and  _326
REMARK  130  A    between atoms: _330  and  _332
REMARK  131  A    between atoms: _332  and  _333
REMARK  132  A    between atoms: _332  and  _335
REMARK  133  A    between atoms: _335  and  _336
REMARK  134  A    between atoms: _336  and  _337
REMARK  135  A    between atoms: _340  and  _342
REMARK  136  A    between atoms: _342  and  _343
REMARK  137  A    between atoms: _342  and  _345
REMARK  138  A    between atoms: _348  and  _350
REMARK  139  A    between atoms: _350  and  _351
REMARK  140  A    between atoms: _350  and  _353
REMARK  141  A    between atoms: _353  and  _354
REMARK                            x       y       z     vdW  Elec       q    Type
REMARK                         _______ _______ _______ _____ _____    ______ ____
ROOT
ATOM      1  O   HOH     1      -8.930  -4.953  -3.365  0.00  0.00    +0.000 OA
ENDROOT
TORSDOF 0
REMARK  Name = ../refined-set-2016/3arr/3arr_pocket.pdb
REMARK  141 active torsions:
REMARK  status: ('A' for Active; 'I' for Inactive)
REMARK    1  A    between atoms: _1  and  _3
REMARK    2  A    between atoms: _3  and  _4
REMARK    3  A    between atoms: _3  and  _6
REMARK    4  A    between atoms: _6  and  _7
REMARK    5  A    between atoms: _17  and  _19
REMARK    6  A    between atoms: _19  and  _20
REMARK    7  A    between atoms: _19  and  _22
REMARK    8  A    between atoms: _22  and  _23
REMARK    9  A    between atoms: _26  and  _28
REMARK   10  A    between atoms: _28  and  _29
REMARK   11  A    between atoms: _28  and  _31
REMARK   12  A    between atoms: _31  and  _32
REMARK   13  A    between atoms: _32  and  _33
REMARK   14  A    between atoms: _36  and  _38
REMARK   15  A    between atoms: _38  and  _39
REMARK   16  A    between atoms: _38  and  _41
REMARK   17  A    between atoms: _41  and  _42
REMARK   18  A    between atoms: _48  and  _50
REMARK   19  A    between atoms: _50  and  _51
REMARK   20  A    between atoms: _53  and  _55
REMARK   21  A    between atoms: _55  and  _56
REMARK   22  A    between atoms: _58  and  _60
REMARK   23  A    between atoms: _60  and  _61
REMARK   24  A    between atoms: _63  and  _65
REMARK   25  A    between atoms: _65  and  _66
REMARK   26  A    between atoms: _69  and  _71
REMARK   27  A    between atoms: _71  and  _72
REMARK   28  A    between atoms: _71  and  _74
REMARK   29  A    between atoms: _74  and  _75
REMARK   30  A    between atoms: _78  and  _80
REMARK   31  A    between atoms: _80  and  _81
REMARK   32  A    between atoms: _83  and  _85
REMARK   33  A    between atoms: _85  and  _86
REMARK   34  A    between atoms: _85  and  _88
REMARK   35  A    between atoms: _91  and  _93
REMARK   36  A    between atoms: _93  and  _94
REMARK   37  A    between atoms: _96  and  _98
REMARK   38  A    between atoms: _98  and  _99
REMARK   39  A    between atoms: _98  and  _101
REMARK   40  A    between atoms: _101  and  _102
REMARK   41  A    between atoms: _107  and  _108
REMARK   42  A    between atoms: _110  and  _112
REMARK   43  A    between atoms: _112  and  _113
REMARK   44  A    between atoms: _112  and  _115
REMARK   45  A    between atoms: _115  and  _116
REMARK   46  A    between atoms: _119  and  _121
REMARK   47  A    between atoms: _121  and  _122
REMARK   48  A    between atoms: _121  and  _124
REMARK   49  A    between atoms: _124  and  _125
REMARK   50  A    between atoms: _125  and  _126
REMARK   51  A    between atoms: _126  and  _127
REMARK   52  A    between atoms: _127  and  _128
REMARK   53  A    between atoms: _132  and  _134
REMARK   54  A    between atoms: _134  and  _135
REMARK   55  A    between atoms: _134  and  _137
REMARK   56  A    between atoms: _137  and  _138
REMARK   57  A    between atoms: _141  and  _143
REMARK   58  A    between atoms: _143  and  _144
REMARK   59  A    between atoms: _143  and  _146
REMARK   60  A    between atoms: _146  and  _147
REMARK   61  A    between atoms: _147  and  _148
REMARK   62  A    between atoms: _150  and  _152
REMARK   63  A    between atoms: _152  and  _153
REMARK   64  A    between atoms: _152  and  _155
REMARK   65  A    between atoms: _155  and  _156
REMARK   66  A    between atoms: _159  and  _161
REMARK   67  A    between atoms: _161  and  _162
REMARK   68  A    between atoms: _161  and  _164
REMARK   69  A    between atoms: _164  and  _165
REMARK   70  A    between atoms: _170  and  _171
REMARK   71  A    between atoms: _173  and  _175
REMARK   72  A    between atoms: _175  and  _176
REMARK   73  A    between atoms: _175  and  _178
REMARK   74  A    between atoms: _178  and  _179
REMARK   75  A    between atoms: _182  and  _184
REMARK   76  A    between atoms: _184  and  _185
REMARK   77  A    between atoms: _184  and  _187
REMARK   78  A    between atoms: _187  and  _188
REMARK   79  A    between atoms: _194  and  _196
REMARK   80  A    between atoms: _196  and  _197
REMARK   81  A    between atoms: _196  and  _199
REMARK   82  A    between atoms: _199  and  _200
REMARK   83  A    between atoms: _205  and  _206
REMARK   84  A    between atoms: _208  and  _210
REMARK   85  A    between atoms: _210  and  _211
REMARK   86  A    between atoms: _213  and  _215
REMARK   87  A    between atoms: _215  and  _216
REMARK   88  A    between atoms: _218  and  _220
REMARK   89  A    between atoms: _220  and  _221
REMARK   90  A    between atoms: _220  and  _223
REMARK   91  A    between atoms: _223  and  _224
REMARK   92  A    between atoms: _234  and  _236
REMARK   93  A    between atoms: _236  and  _237
REMARK   94  A    between atoms: _236  and  _239
REMARK   95  A    between atoms: _239  and  _240
REMARK   96  A    between atoms: _245  and  _247
REMARK   97  A    between atoms: _247  and  _248
REMARK   98  A    between atoms: _247  and  _250
REMARK   99  A    between atoms: _250  and  _251
REMARK  100  A    between atoms: _251  and  _252
REMARK  101  A    between atoms: _257  and  _259
REMARK  102  A    between atoms: _259  and  _260
REMARK  103  A    between atoms: _263  and  _265
REMARK  104  A    between atoms: _265  and  _266
REMARK  105  A    between atoms: _265  and  _268
REMARK  106  A    between atoms: _268  and  _269
REMARK  107  A    between atoms: _274  and  _275
REMARK  108  A    between atoms: _277  and  _279
REMARK  109  A    between atoms: _279  and  _280
REMARK  110  A    between atoms: _279  and  _282
REMARK  111  A    between atoms: _282  and  _283
REMARK  112  A    between atoms: _286  and  _288
REMARK  113  A    between atoms: _288  and  _289
REMARK  114  A    between atoms: _288  and  _291
REMARK  115  A    between atoms: _291  and  _292
REMARK  116  A    between atoms: _297  and  _298
REMARK  117  A    between atoms: _300  and  _302
REMARK  118  A    between atoms: _302  and  _303
REMARK  119  A    between atoms: _302  and  _305
REMARK  120  A    between atoms: _305  and  _306
REMARK  121  A    between atoms: _306  and  _307
REMARK  122  A    between atoms: _307  and  _308
REMARK  123  A    between atoms: _317  and  _319
REMARK  124  A    between atoms: _319  and  _320
REMARK  125  A    between atoms: _319  and  _322
REMARK  126  A    between atoms: _322  and  _323
REMARK  127  A    between atoms: _323  and  _324
REMARK  128  A    between atoms: _324  and  _325
REMARK  129  A    between atoms: _325  and  _326
REMARK  130  A    between atoms: _330  and  _332
REMARK  131  A    between atoms: _332  and  _333
REMARK  132  A    between atoms: _332  and  _335
REMARK  133  A    between atoms: _335  and  _336
REMARK  134  A    between atoms: _336  and  _337
REMARK  135  A    between atoms: _340  and  _342
REMARK  136  A    between atoms: _342  and  _343
REMARK  137  A    between atoms: _342  and  _345
REMARK  138  A    between atoms: _348  and  _350
REMARK  139  A    between atoms: _350  and  _351
REMARK  140  A    between atoms: _350  and  _353
REMARK  141  A    between atoms: _353  and  _354
REMARK                            x       y       z     vdW  Elec       q    Type
REMARK                         _______ _______ _______ _____ _____    ______ ____
ROOT
ATOM      1  O   HOH     1      -5.385 -17.886  -2.724  0.00  0.00    +0.000 OA
ENDROOT
TORSDOF 0
REMARK  Name = ../refined-set-2016/3arr/3arr_pocket.pdb
REMARK  141 active torsions:
REMARK  status: ('A' for Active; 'I' for Inactive)
REMARK    1  A    between atoms: _1  and  _3
REMARK    2  A    between atoms: _3  and  _4
REMARK    3  A    between atoms: _3  and  _6
REMARK    4  A    between atoms: _6  and  _7
REMARK    5  A    between atoms: _17  and  _19
REMARK    6  A    between atoms: _19  and  _20
REMARK    7  A    between atoms: _19  and  _22
REMARK    8  A    between atoms: _22  and  _23
REMARK    9  A    between atoms: _26  and  _28
REMARK   10  A    between atoms: _28  and  _29
REMARK   11  A    between atoms: _28  and  _31
REMARK   12  A    between atoms: _31  and  _32
REMARK   13  A    between atoms: _32  and  _33
REMARK   14  A    between atoms: _36  and  _38
REMARK   15  A    between atoms: _38  and  _39
REMARK   16  A    between atoms: _38  and  _41
REMARK   17  A    between atoms: _41  and  _42
REMARK   18  A    between atoms: _48  and  _50
REMARK   19  A    between atoms: _50  and  _51
REMARK   20  A    between atoms: _53  and  _55
REMARK   21  A    between atoms: _55  and  _56
REMARK   22  A    between atoms: _58  and  _60
REMARK   23  A    between atoms: _60  and  _61
REMARK   24  A    between atoms: _63  and  _65
REMARK   25  A    between atoms: _65  and  _66
REMARK   26  A    between atoms: _69  and  _71
REMARK   27  A    between atoms: _71  and  _72
REMARK   28  A    between atoms: _71  and  _74
REMARK   29  A    between atoms: _74  and  _75
REMARK   30  A    between atoms: _78  and  _80
REMARK   31  A    between atoms: _80  and  _81
REMARK   32  A    between atoms: _83  and  _85
REMARK   33  A    between atoms: _85  and  _86
REMARK   34  A    between atoms: _85  and  _88
REMARK   35  A    between atoms: _91  and  _93
REMARK   36  A    between atoms: _93  and  _94
REMARK   37  A    between atoms: _96  and  _98
REMARK   38  A    between atoms: _98  and  _99
REMARK   39  A    between atoms: _98  and  _101
REMARK   40  A    between atoms: _101  and  _102
REMARK   41  A    between atoms: _107  and  _108
REMARK   42  A    between atoms: _110  and  _112
REMARK   43  A    between atoms: _112  and  _113
REMARK   44  A    between atoms: _112  and  _115
REMARK   45  A    between atoms: _115  and  _116
REMARK   46  A    between atoms: _119  and  _121
REMARK   47  A    between atoms: _121  and  _122
REMARK   48  A    between atoms: _121  and  _124
REMARK   49  A    between atoms: _124  and  _125
REMARK   50  A    between atoms: _125  and  _126
REMARK   51  A    between atoms: _126  and  _127
REMARK   52  A    between atoms: _127  and  _128
REMARK   53  A    between atoms: _132  and  _134
REMARK   54  A    between atoms: _134  and  _135
REMARK   55  A    between atoms: _134  and  _137
REMARK   56  A    between atoms: _137  and  _138
REMARK   57  A    between atoms: _141  and  _143
REMARK   58  A    between atoms: _143  and  _144
REMARK   59  A    between atoms: _143  and  _146
REMARK   60  A    between atoms: _146  and  _147
REMARK   61  A    between atoms: _147  and  _148
REMARK   62  A    between atoms: _150  and  _152
REMARK   63  A    between atoms: _152  and  _153
REMARK   64  A    between atoms: _152  and  _155
REMARK   65  A    between atoms: _155  and  _156
REMARK   66  A    between atoms: _159  and  _161
REMARK   67  A    between atoms: _161  and  _162
REMARK   68  A    between atoms: _161  and  _164
REMARK   69  A    between atoms: _164  and  _165
REMARK   70  A    between atoms: _170  and  _171
REMARK   71  A    between atoms: _173  and  _175
REMARK   72  A    between atoms: _175  and  _176
REMARK   73  A    between atoms: _175  and  _178
REMARK   74  A    between atoms: _178  and  _179
REMARK   75  A    between atoms: _182  and  _184
REMARK   76  A    between atoms: _184  and  _185
REMARK   77  A    between atoms: _184  and  _187
REMARK   78  A    between atoms: _187  and  _188
REMARK   79  A    between atoms: _194  and  _196
REMARK   80  A    between atoms: _196  and  _197
REMARK   81  A    between atoms: _196  and  _199
REMARK   82  A    between atoms: _199  and  _200
REMARK   83  A    between atoms: _205  and  _206
REMARK   84  A    between atoms: _208  and  _210
REMARK   85  A    between atoms: _210  and  _211
REMARK   86  A    between atoms: _213  and  _215
REMARK   87  A    between atoms: _215  and  _216
REMARK   88  A    between atoms: _218  and  _220
REMARK   89  A    between atoms: _220  and  _221
REMARK   90  A    between atoms: _220  and  _223
REMARK   91  A    between atoms: _223  and  _224
REMARK   92  A    between atoms: _234  and  _236
REMARK   93  A    between atoms: _236  and  _237
REMARK   94  A    between atoms: _236  and  _239
REMARK   95  A    between atoms: _239  and  _240
REMARK   96  A    between atoms: _245  and  _247
REMARK   97  A    between atoms: _247  and  _248
REMARK   98  A    between atoms: _247  and  _250
REMARK   99  A    between atoms: _250  and  _251
REMARK  100  A    between atoms: _251  and  _252
REMARK  101  A    between atoms: _257  and  _259
REMARK  102  A    between atoms: _259  and  _260
REMARK  103  A    between atoms: _263  and  _265
REMARK  104  A    between atoms: _265  and  _266
REMARK  105  A    between atoms: _265  and  _268
REMARK  106  A    between atoms: _268  and  _269
REMARK  107  A    between atoms: _274  and  _275
REMARK  108  A    between atoms: _277  and  _279
REMARK  109  A    between atoms: _279  and  _280
REMARK  110  A    between atoms: _279  and  _282
REMARK  111  A    between atoms: _282  and  _283
REMARK  112  A    between atoms: _286  and  _288
REMARK  113  A    between atoms: _288  and  _289
REMARK  114  A    between atoms: _288  and  _291
REMARK  115  A    between atoms: _291  and  _292
REMARK  116  A    between atoms: _297  and  _298
REMARK  117  A    between atoms: _300  and  _302
REMARK  118  A    between atoms: _302  and  _303
REMARK  119  A    between atoms: _302  and  _305
REMARK  120  A    between atoms: _305  and  _306
REMARK  121  A    between atoms: _306  and  _307
REMARK  122  A    between atoms: _307  and  _308
REMARK  123  A    between atoms: _317  and  _319
REMARK  124  A    between atoms: _319  and  _320
REMARK  125  A    between atoms: _319  and  _322
REMARK  126  A    between atoms: _322  and  _323
REMARK  127  A    between atoms: _323  and  _324
REMARK  128  A    between atoms: _324  and  _325
REMARK  129  A    between atoms: _325  and  _326
REMARK  130  A    between atoms: _330  and  _332
REMARK  131  A    between atoms: _332  and  _333
REMARK  132  A    between atoms: _332  and  _335
REMARK  133  A    between atoms: _335  and  _336
REMARK  134  A    between atoms: _336  and  _337
REMARK  135  A    between atoms: _340  and  _342
REMARK  136  A    between atoms: _342  and  _343
REMARK  137  A    between atoms: _342  and  _345
REMARK  138  A    between atoms: _348  and  _350
REMARK  139  A    between atoms: _350  and  _351
REMARK  140  A    between atoms: _350  and  _353
REMARK  141  A    between atoms: _353  and  _354
REMARK                            x       y       z     vdW  Elec       q    Type
REMARK                         _______ _______ _______ _____ _____    ______ ____
ROOT
ATOM      1  O   HOH     1       2.473 -17.718   6.181  0.00  0.00    +0.000 OA
ENDROOT
TORSDOF 0
REMARK  Name = ../refined-set-2016/3arr/3arr_pocket.pdb
REMARK  141 active torsions:
REMARK  status: ('A' for Active; 'I' for Inactive)
REMARK    1  A    between atoms: _1  and  _3
REMARK    2  A    between atoms: _3  and  _4
REMARK    3  A    between atoms: _3  and  _6
REMARK    4  A    between atoms: _6  and  _7
REMARK    5  A    between atoms: _17  and  _19
REMARK    6  A    between atoms: _19  and  _20
REMARK    7  A    between atoms: _19  and  _22
REMARK    8  A    between atoms: _22  and  _23
REMARK    9  A    between atoms: _26  and  _28
REMARK   10  A    between atoms: _28  and  _29
REMARK   11  A    between atoms: _28  and  _31
REMARK   12  A    between atoms: _31  and  _32
REMARK   13  A    between atoms: _32  and  _33
REMARK   14  A    between atoms: _36  and  _38
REMARK   15  A    between atoms: _38  and  _39
REMARK   16  A    between atoms: _38  and  _41
REMARK   17  A    between atoms: _41  and  _42
REMARK   18  A    between atoms: _48  and  _50
REMARK   19  A    between atoms: _50  and  _51
REMARK   20  A    between atoms: _53  and  _55
REMARK   21  A    between atoms: _55  and  _56
REMARK   22  A    between atoms: _58  and  _60
REMARK   23  A    between atoms: _60  and  _61
REMARK   24  A    between atoms: _63  and  _65
REMARK   25  A    between atoms: _65  and  _66
REMARK   26  A    between atoms: _69  and  _71
REMARK   27  A    between atoms: _71  and  _72
REMARK   28  A    between atoms: _71  and  _74
REMARK   29  A    between atoms: _74  and  _75
REMARK   30  A    between atoms: _78  and  _80
REMARK   31  A    between atoms: _80  and  _81
REMARK   32  A    between atoms: _83  and  _85
REMARK   33  A    between atoms: _85  and  _86
REMARK   34  A    between atoms: _85  and  _88
REMARK   35  A    between atoms: _91  and  _93
REMARK   36  A    between atoms: _93  and  _94
REMARK   37  A    between atoms: _96  and  _98
REMARK   38  A    between atoms: _98  and  _99
REMARK   39  A    between atoms: _98  and  _101
REMARK   40  A    between atoms: _101  and  _102
REMARK   41  A    between atoms: _107  and  _108
REMARK   42  A    between atoms: _110  and  _112
REMARK   43  A    between atoms: _112  and  _113
REMARK   44  A    between atoms: _112  and  _115
REMARK   45  A    between atoms: _115  and  _116
REMARK   46  A    between atoms: _119  and  _121
REMARK   47  A    between atoms: _121  and  _122
REMARK   48  A    between atoms: _121  and  _124
REMARK   49  A    between atoms: _124  and  _125
REMARK   50  A    between atoms: _125  and  _126
REMARK   51  A    between atoms: _126  and  _127
REMARK   52  A    between atoms: _127  and  _128
REMARK   53  A    between atoms: _132  and  _134
REMARK   54  A    between atoms: _134  and  _135
REMARK   55  A    between atoms: _134  and  _137
REMARK   56  A    between atoms: _137  and  _138
REMARK   57  A    between atoms: _141  and  _143
REMARK   58  A    between atoms: _143  and  _144
REMARK   59  A    between atoms: _143  and  _146
REMARK   60  A    between atoms: _146  and  _147
REMARK   61  A    between atoms: _147  and  _148
REMARK   62  A    between atoms: _150  and  _152
REMARK   63  A    between atoms: _152  and  _153
REMARK   64  A    between atoms: _152  and  _155
REMARK   65  A    between atoms: _155  and  _156
REMARK   66  A    between atoms: _159  and  _161
REMARK   67  A    between atoms: _161  and  _162
REMARK   68  A    between atoms: _161  and  _164
REMARK   69  A    between atoms: _164  and  _165
REMARK   70  A    between atoms: _170  and  _171
REMARK   71  A    between atoms: _173  and  _175
REMARK   72  A    between atoms: _175  and  _176
REMARK   73  A    between atoms: _175  and  _178
REMARK   74  A    between atoms: _178  and  _179
REMARK   75  A    between atoms: _182  and  _184
REMARK   76  A    between atoms: _184  and  _185
REMARK   77  A    between atoms: _184  and  _187
REMARK   78  A    between atoms: _187  and  _188
REMARK   79  A    between atoms: _194  and  _196
REMARK   80  A    between atoms: _196  and  _197
REMARK   81  A    between atoms: _196  and  _199
REMARK   82  A    between atoms: _199  and  _200
REMARK   83  A    between atoms: _205  and  _206
REMARK   84  A    between atoms: _208  and  _210
REMARK   85  A    between atoms: _210  and  _211
REMARK   86  A    between atoms: _213  and  _215
REMARK   87  A    between atoms: _215  and  _216
REMARK   88  A    between atoms: _218  and  _220
REMARK   89  A    between atoms: _220  and  _221
REMARK   90  A    between atoms: _220  and  _223
REMARK   91  A    between atoms: _223  and  _224
REMARK   92  A    between atoms: _234  and  _236
REMARK   93  A    between atoms: _236  and  _237
REMARK   94  A    between atoms: _236  and  _239
REMARK   95  A    between atoms: _239  and  _240
REMARK   96  A    between atoms: _245  and  _247
REMARK   97  A    between atoms: _247  and  _248
REMARK   98  A    between atoms: _247  and  _250
REMARK   99  A    between atoms: _250  and  _251
REMARK  100  A    between atoms: _251  and  _252
REMARK  101  A    between atoms: _257  and  _259
REMARK  102  A    between atoms: _259  and  _260
REMARK  103  A    between atoms: _263  and  _265
REMARK  104  A    between atoms: _265  and  _266
REMARK  105  A    between atoms: _265  and  _268
REMARK  106  A    between atoms: _268  and  _269
REMARK  107  A    between atoms: _274  and  _275
REMARK  108  A    between atoms: _277  and  _279
REMARK  109  A    between atoms: _279  and  _280
REMARK  110  A    between atoms: _279  and  _282
REMARK  111  A    between atoms: _282  and  _283
REMARK  112  A    between atoms: _286  and  _288
REMARK  113  A    between atoms: _288  and  _289
REMARK  114  A    between atoms: _288  and  _291
REMARK  115  A    between atoms: _291  and  _292
REMARK  116  A    between atoms: _297  and  _298
REMARK  117  A    between atoms: _300  and  _302
REMARK  118  A    between atoms: _302  and  _303
REMARK  119  A    between atoms: _302  and  _305
REMARK  120  A    between atoms: _305  and  _306
REMARK  121  A    between atoms: _306  and  _307
REMARK  122  A    between atoms: _307  and  _308
REMARK  123  A    between atoms: _317  and  _319
REMARK  124  A    between atoms: _319  and  _320
REMARK  125  A    between atoms: _319  and  _322
REMARK  126  A    between atoms: _322  and  _323
REMARK  127  A    between atoms: _323  and  _324
REMARK  128  A    between atoms: _324  and  _325
REMARK  129  A    between atoms: _325  and  _326
REMARK  130  A    between atoms: _330  and  _332
REMARK  131  A    between atoms: _332  and  _333
REMARK  132  A    between atoms: _332  and  _335
REMARK  133  A    between atoms: _335  and  _336
REMARK  134  A    between atoms: _336  and  _337
REMARK  135  A    between atoms: _340  and  _342
REMARK  136  A    between atoms: _342  and  _343
REMARK  137  A    between atoms: _342  and  _345
REMARK  138  A    between atoms: _348  and  _350
REMARK  139  A    between atoms: _350  and  _351
REMARK  140  A    between atoms: _350  and  _353
REMARK  141  A    between atoms: _353  and  _354
REMARK                            x       y       z     vdW  Elec       q    Type
REMARK                         _______ _______ _______ _____ _____    ______ ____
ROOT
ATOM      1  O   HOH     1     -10.478 -18.614  -2.741  0.00  0.00    +0.000 OA
ENDROOT
TORSDOF 0
REMARK  Name = ../refined-set-2016/3arr/3arr_pocket.pdb
REMARK  141 active torsions:
REMARK  status: ('A' for Active; 'I' for Inactive)
REMARK    1  A    between atoms: _1  and  _3
REMARK    2  A    between atoms: _3  and  _4
REMARK    3  A    between atoms: _3  and  _6
REMARK    4  A    between atoms: _6  and  _7
REMARK    5  A    between atoms: _17  and  _19
REMARK    6  A    between atoms: _19  and  _20
REMARK    7  A    between atoms: _19  and  _22
REMARK    8  A    between atoms: _22  and  _23
REMARK    9  A    between atoms: _26  and  _28
REMARK   10  A    between atoms: _28  and  _29
REMARK   11  A    between atoms: _28  and  _31
REMARK   12  A    between atoms: _31  and  _32
REMARK   13  A    between atoms: _32  and  _33
REMARK   14  A    between atoms: _36  and  _38
REMARK   15  A    between atoms: _38  and  _39
REMARK   16  A    between atoms: _38  and  _41
REMARK   17  A    between atoms: _41  and  _42
REMARK   18  A    between atoms: _48  and  _50
REMARK   19  A    between atoms: _50  and  _51
REMARK   20  A    between atoms: _53  and  _55
REMARK   21  A    between atoms: _55  and  _56
REMARK   22  A    between atoms: _58  and  _60
REMARK   23  A    between atoms: _60  and  _61
REMARK   24  A    between atoms: _63  and  _65
REMARK   25  A    between atoms: _65  and  _66
REMARK   26  A    between atoms: _69  and  _71
REMARK   27  A    between atoms: _71  and  _72
REMARK   28  A    between atoms: _71  and  _74
REMARK   29  A    between atoms: _74  and  _75
REMARK   30  A    between atoms: _78  and  _80
REMARK   31  A    between atoms: _80  and  _81
REMARK   32  A    between atoms: _83  and  _85
REMARK   33  A    between atoms: _85  and  _86
REMARK   34  A    between atoms: _85  and  _88
REMARK   35  A    between atoms: _91  and  _93
REMARK   36  A    between atoms: _93  and  _94
REMARK   37  A    between atoms: _96  and  _98
REMARK   38  A    between atoms: _98  and  _99
REMARK   39  A    between atoms: _98  and  _101
REMARK   40  A    between atoms: _101  and  _102
REMARK   41  A    between atoms: _107  and  _108
REMARK   42  A    between atoms: _110  and  _112
REMARK   43  A    between atoms: _112  and  _113
REMARK   44  A    between atoms: _112  and  _115
REMARK   45  A    between atoms: _115  and  _116
REMARK   46  A    between atoms: _119  and  _121
REMARK   47  A    between atoms: _121  and  _122
REMARK   48  A    between atoms: _121  and  _124
REMARK   49  A    between atoms: _124  and  _125
REMARK   50  A    between atoms: _125  and  _126
REMARK   51  A    between atoms: _126  and  _127
REMARK   52  A    between atoms: _127  and  _128
REMARK   53  A    between atoms: _132  and  _134
REMARK   54  A    between atoms: _134  and  _135
REMARK   55  A    between atoms: _134  and  _137
REMARK   56  A    between atoms: _137  and  _138
REMARK   57  A    between atoms: _141  and  _143
REMARK   58  A    between atoms: _143  and  _144
REMARK   59  A    between atoms: _143  and  _146
REMARK   60  A    between atoms: _146  and  _147
REMARK   61  A    between atoms: _147  and  _148
REMARK   62  A    between atoms: _150  and  _152
REMARK   63  A    between atoms: _152  and  _153
REMARK   64  A    between atoms: _152  and  _155
REMARK   65  A    between atoms: _155  and  _156
REMARK   66  A    between atoms: _159  and  _161
REMARK   67  A    between atoms: _161  and  _162
REMARK   68  A    between atoms: _161  and  _164
REMARK   69  A    between atoms: _164  and  _165
REMARK   70  A    between atoms: _170  and  _171
REMARK   71  A    between atoms: _173  and  _175
REMARK   72  A    between atoms: _175  and  _176
REMARK   73  A    between atoms: _175  and  _178
REMARK   74  A    between atoms: _178  and  _179
REMARK   75  A    between atoms: _182  and  _184
REMARK   76  A    between atoms: _184  and  _185
REMARK   77  A    between atoms: _184  and  _187
REMARK   78  A    between atoms: _187  and  _188
REMARK   79  A    between atoms: _194  and  _196
REMARK   80  A    between atoms: _196  and  _197
REMARK   81  A    between atoms: _196  and  _199
REMARK   82  A    between atoms: _199  and  _200
REMARK   83  A    between atoms: _205  and  _206
REMARK   84  A    between atoms: _208  and  _210
REMARK   85  A    between atoms: _210  and  _211
REMARK   86  A    between atoms: _213  and  _215
REMARK   87  A    between atoms: _215  and  _216
REMARK   88  A    between atoms: _218  and  _220
REMARK   89  A    between atoms: _220  and  _221
REMARK   90  A    between atoms: _220  and  _223
REMARK   91  A    between atoms: _223  and  _224
REMARK   92  A    between atoms: _234  and  _236
REMARK   93  A    between atoms: _236  and  _237
REMARK   94  A    between atoms: _236  and  _239
REMARK   95  A    between atoms: _239  and  _240
REMARK   96  A    between atoms: _245  and  _247
REMARK   97  A    between atoms: _247  and  _248
REMARK   98  A    between atoms: _247  and  _250
REMARK   99  A    between atoms: _250  and  _251
REMARK  100  A    between atoms: _251  and  _252
REMARK  101  A    between atoms: _257  and  _259
REMARK  102  A    between atoms: _259  and  _260
REMARK  103  A    between atoms: _263  and  _265
REMARK  104  A    between atoms: _265  and  _266
REMARK  105  A    between atoms: _265  and  _268
REMARK  106  A    between atoms: _268  and  _269
REMARK  107  A    between atoms: _274  and  _275
REMARK  108  A    between atoms: _277  and  _279
REMARK  109  A    between atoms: _279  and  _280
REMARK  110  A    between atoms: _279  and  _282
REMARK  111  A    between atoms: _282  and  _283
REMARK  112  A    between atoms: _286  and  _288
REMARK  113  A    between atoms: _288  and  _289
REMARK  114  A    between atoms: _288  and  _291
REMARK  115  A    between atoms: _291  and  _292
REMARK  116  A    between atoms: _297  and  _298
REMARK  117  A    between atoms: _300  and  _302
REMARK  118  A    between atoms: _302  and  _303
REMARK  119  A    between atoms: _302  and  _305
REMARK  120  A    between atoms: _305  and  _306
REMARK  121  A    between atoms: _306  and  _307
REMARK  122  A    between atoms: _307  and  _308
REMARK  123  A    between atoms: _317  and  _319
REMARK  124  A    between atoms: _319  and  _320
REMARK  125  A    between atoms: _319  and  _322
REMARK  126  A    between atoms: _322  and  _323
REMARK  127  A    between atoms: _323  and  _324
REMARK  128  A    between atoms: _324  and  _325
REMARK  129  A    between atoms: _325  and  _326
REMARK  130  A    between atoms: _330  and  _332
REMARK  131  A    between atoms: _332  and  _333
REMARK  132  A    between atoms: _332  and  _335
REMARK  133  A    between atoms: _335  and  _336
REMARK  134  A    between atoms: _336  and  _337
REMARK  135  A    between atoms: _340  and  _342
REMARK  136  A    between atoms: _342  and  _343
REMARK  137  A    between atoms: _342  and  _345
REMARK  138  A    between atoms: _348  and  _350
REMARK  139  A    between atoms: _350  and  _351
REMARK  140  A    between atoms: _350  and  _353
REMARK  141  A    between atoms: _353  and  _354
REMARK                            x       y       z     vdW  Elec       q    Type
REMARK                         _______ _______ _______ _____ _____    ______ ____
ROOT
ATOM      1  O   HOH     1      -8.337 -19.244  -1.836  0.00  0.00    +0.000 OA
ENDROOT
TORSDOF 0
REMARK  Name = ../refined-set-2016/3arr/3arr_pocket.pdb
REMARK  141 active torsions:
REMARK  status: ('A' for Active; 'I' for Inactive)
REMARK    1  A    between atoms: _1  and  _3
REMARK    2  A    between atoms: _3  and  _4
REMARK    3  A    between atoms: _3  and  _6
REMARK    4  A    between atoms: _6  and  _7
REMARK    5  A    between atoms: _17  and  _19
REMARK    6  A    between atoms: _19  and  _20
REMARK    7  A    between atoms: _19  and  _22
REMARK    8  A    between atoms: _22  and  _23
REMARK    9  A    between atoms: _26  and  _28
REMARK   10  A    between atoms: _28  and  _29
REMARK   11  A    between atoms: _28  and  _31
REMARK   12  A    between atoms: _31  and  _32
REMARK   13  A    between atoms: _32  and  _33
REMARK   14  A    between atoms: _36  and  _38
REMARK   15  A    between atoms: _38  and  _39
REMARK   16  A    between atoms: _38  and  _41
REMARK   17  A    between atoms: _41  and  _42
REMARK   18  A    between atoms: _48  and  _50
REMARK   19  A    between atoms: _50  and  _51
REMARK   20  A    between atoms: _53  and  _55
REMARK   21  A    between atoms: _55  and  _56
REMARK   22  A    between atoms: _58  and  _60
REMARK   23  A    between atoms: _60  and  _61
REMARK   24  A    between atoms: _63  and  _65
REMARK   25  A    between atoms: _65  and  _66
REMARK   26  A    between atoms: _69  and  _71
REMARK   27  A    between atoms: _71  and  _72
REMARK   28  A    between atoms: _71  and  _74
REMARK   29  A    between atoms: _74  and  _75
REMARK   30  A    between atoms: _78  and  _80
REMARK   31  A    between atoms: _80  and  _81
REMARK   32  A    between atoms: _83  and  _85
REMARK   33  A    between atoms: _85  and  _86
REMARK   34  A    between atoms: _85  and  _88
REMARK   35  A    between atoms: _91  and  _93
REMARK   36  A    between atoms: _93  and  _94
REMARK   37  A    between atoms: _96  and  _98
REMARK   38  A    between atoms: _98  and  _99
REMARK   39  A    between atoms: _98  and  _101
REMARK   40  A    between atoms: _101  and  _102
REMARK   41  A    between atoms: _107  and  _108
REMARK   42  A    between atoms: _110  and  _112
REMARK   43  A    between atoms: _112  and  _113
REMARK   44  A    between atoms: _112  and  _115
REMARK   45  A    between atoms: _115  and  _116
REMARK   46  A    between atoms: _119  and  _121
REMARK   47  A    between atoms: _121  and  _122
REMARK   48  A    between atoms: _121  and  _124
REMARK   49  A    between atoms: _124  and  _125
REMARK   50  A    between atoms: _125  and  _126
REMARK   51  A    between atoms: _126  and  _127
REMARK   52  A    between atoms: _127  and  _128
REMARK   53  A    between atoms: _132  and  _134
REMARK   54  A    between atoms: _134  and  _135
REMARK   55  A    between atoms: _134  and  _137
REMARK   56  A    between atoms: _137  and  _138
REMARK   57  A    between atoms: _141  and  _143
REMARK   58  A    between atoms: _143  and  _144
REMARK   59  A    between atoms: _143  and  _146
REMARK   60  A    between atoms: _146  and  _147
REMARK   61  A    between atoms: _147  and  _148
REMARK   62  A    between atoms: _150  and  _152
REMARK   63  A    between atoms: _152  and  _153
REMARK   64  A    between atoms: _152  and  _155
REMARK   65  A    between atoms: _155  and  _156
REMARK   66  A    between atoms: _159  and  _161
REMARK   67  A    between atoms: _161  and  _162
REMARK   68  A    between atoms: _161  and  _164
REMARK   69  A    between atoms: _164  and  _165
REMARK   70  A    between atoms: _170  and  _171
REMARK   71  A    between atoms: _173  and  _175
REMARK   72  A    between atoms: _175  and  _176
REMARK   73  A    between atoms: _175  and  _178
REMARK   74  A    between atoms: _178  and  _179
REMARK   75  A    between atoms: _182  and  _184
REMARK   76  A    between atoms: _184  and  _185
REMARK   77  A    between atoms: _184  and  _187
REMARK   78  A    between atoms: _187  and  _188
REMARK   79  A    between atoms: _194  and  _196
REMARK   80  A    between atoms: _196  and  _197
REMARK   81  A    between atoms: _196  and  _199
REMARK   82  A    between atoms: _199  and  _200
REMARK   83  A    between atoms: _205  and  _206
REMARK   84  A    between atoms: _208  and  _210
REMARK   85  A    between atoms: _210  and  _211
REMARK   86  A    between atoms: _213  and  _215
REMARK   87  A    between atoms: _215  and  _216
REMARK   88  A    between atoms: _218  and  _220
REMARK   89  A    between atoms: _220  and  _221
REMARK   90  A    between atoms: _220  and  _223
REMARK   91  A    between atoms: _223  and  _224
REMARK   92  A    between atoms: _234  and  _236
REMARK   93  A    between atoms: _236  and  _237
REMARK   94  A    between atoms: _236  and  _239
REMARK   95  A    between atoms: _239  and  _240
REMARK   96  A    between atoms: _245  and  _247
REMARK   97  A    between atoms: _247  and  _248
REMARK   98  A    between atoms: _247  and  _250
REMARK   99  A    between atoms: _250  and  _251
REMARK  100  A    between atoms: _251  and  _252
REMARK  101  A    between atoms: _257  and  _259
REMARK  102  A    between atoms: _259  and  _260
REMARK  103  A    between atoms: _263  and  _265
REMARK  104  A    between atoms: _265  and  _266
REMARK  105  A    between atoms: _265  and  _268
REMARK  106  A    between atoms: _268  and  _269
REMARK  107  A    between atoms: _274  and  _275
REMARK  108  A    between atoms: _277  and  _279
REMARK  109  A    between atoms: _279  and  _280
REMARK  110  A    between atoms: _279  and  _282
REMARK  111  A    between atoms: _282  and  _283
REMARK  112  A    between atoms: _286  and  _288
REMARK  113  A    between atoms: _288  and  _289
REMARK  114  A    between atoms: _288  and  _291
REMARK  115  A    between atoms: _291  and  _292
REMARK  116  A    between atoms: _297  and  _298
REMARK  117  A    between atoms: _300  and  _302
REMARK  118  A    between atoms: _302  and  _303
REMARK  119  A    between atoms: _302  and  _305
REMARK  120  A    between atoms: _305  and  _306
REMARK  121  A    between atoms: _306  and  _307
REMARK  122  A    between atoms: _307  and  _308
REMARK  123  A    between atoms: _317  and  _319
REMARK  124  A    between atoms: _319  and  _320
REMARK  125  A    between atoms: _319  and  _322
REMARK  126  A    between atoms: _322  and  _323
REMARK  127  A    between atoms: _323  and  _324
REMARK  128  A    between atoms: _324  and  _325
REMARK  129  A    between atoms: _325  and  _326
REMARK  130  A    between atoms: _330  and  _332
REMARK  131  A    between atoms: _332  and  _333
REMARK  132  A    between atoms: _332  and  _335
REMARK  133  A    between atoms: _335  and  _336
REMARK  134  A    between atoms: _336  and  _337
REMARK  135  A    between atoms: _340  and  _342
REMARK  136  A    between atoms: _342  and  _343
REMARK  137  A    between atoms: _342  and  _345
REMARK  138  A    between atoms: _348  and  _350
REMARK  139  A    between atoms: _350  and  _351
REMARK  140  A    between atoms: _350  and  _353
REMARK  141  A    between atoms: _353  and  _354
REMARK                            x       y       z     vdW  Elec       q    Type
REMARK                         _______ _______ _______ _____ _____    ______ ____
ROOT
ATOM      1  O   HOH     1      -9.310 -14.709   4.385  0.00  0.00    +0.000 OA
ENDROOT
TORSDOF 0
REMARK  Name = ../refined-set-2016/3arr/3arr_pocket.pdb
REMARK  141 active torsions:
REMARK  status: ('A' for Active; 'I' for Inactive)
REMARK    1  A    between atoms: _1  and  _3
REMARK    2  A    between atoms: _3  and  _4
REMARK    3  A    between atoms: _3  and  _6
REMARK    4  A    between atoms: _6  and  _7
REMARK    5  A    between atoms: _17  and  _19
REMARK    6  A    between atoms: _19  and  _20
REMARK    7  A    between atoms: _19  and  _22
REMARK    8  A    between atoms: _22  and  _23
REMARK    9  A    between atoms: _26  and  _28
REMARK   10  A    between atoms: _28  and  _29
REMARK   11  A    between atoms: _28  and  _31
REMARK   12  A    between atoms: _31  and  _32
REMARK   13  A    between atoms: _32  and  _33
REMARK   14  A    between atoms: _36  and  _38
REMARK   15  A    between atoms: _38  and  _39
REMARK   16  A    between atoms: _38  and  _41
REMARK   17  A    between atoms: _41  and  _42
REMARK   18  A    between atoms: _48  and  _50
REMARK   19  A    between atoms: _50  and  _51
REMARK   20  A    between atoms: _53  and  _55
REMARK   21  A    between atoms: _55  and  _56
REMARK   22  A    between atoms: _58  and  _60
REMARK   23  A    between atoms: _60  and  _61
REMARK   24  A    between atoms: _63  and  _65
REMARK   25  A    between atoms: _65  and  _66
REMARK   26  A    between atoms: _69  and  _71
REMARK   27  A    between atoms: _71  and  _72
REMARK   28  A    between atoms: _71  and  _74
REMARK   29  A    between atoms: _74  and  _75
REMARK   30  A    between atoms: _78  and  _80
REMARK   31  A    between atoms: _80  and  _81
REMARK   32  A    between atoms: _83  and  _85
REMARK   33  A    between atoms: _85  and  _86
REMARK   34  A    between atoms: _85  and  _88
REMARK   35  A    between atoms: _91  and  _93
REMARK   36  A    between atoms: _93  and  _94
REMARK   37  A    between atoms: _96  and  _98
REMARK   38  A    between atoms: _98  and  _99
REMARK   39  A    between atoms: _98  and  _101
REMARK   40  A    between atoms: _101  and  _102
REMARK   41  A    between atoms: _107  and  _108
REMARK   42  A    between atoms: _110  and  _112
REMARK   43  A    between atoms: _112  and  _113
REMARK   44  A    between atoms: _112  and  _115
REMARK   45  A    between atoms: _115  and  _116
REMARK   46  A    between atoms: _119  and  _121
REMARK   47  A    between atoms: _121  and  _122
REMARK   48  A    between atoms: _121  and  _124
REMARK   49  A    between atoms: _124  and  _125
REMARK   50  A    between atoms: _125  and  _126
REMARK   51  A    between atoms: _126  and  _127
REMARK   52  A    between atoms: _127  and  _128
REMARK   53  A    between atoms: _132  and  _134
REMARK   54  A    between atoms: _134  and  _135
REMARK   55  A    between atoms: _134  and  _137
REMARK   56  A    between atoms: _137  and  _138
REMARK   57  A    between atoms: _141  and  _143
REMARK   58  A    between atoms: _143  and  _144
REMARK   59  A    between atoms: _143  and  _146
REMARK   60  A    between atoms: _146  and  _147
REMARK   61  A    between atoms: _147  and  _148
REMARK   62  A    between atoms: _150  and  _152
REMARK   63  A    between atoms: _152  and  _153
REMARK   64  A    between atoms: _152  and  _155
REMARK   65  A    between atoms: _155  and  _156
REMARK   66  A    between atoms: _159  and  _161
REMARK   67  A    between atoms: _161  and  _162
REMARK   68  A    between atoms: _161  and  _164
REMARK   69  A    between atoms: _164  and  _165
REMARK   70  A    between atoms: _170  and  _171
REMARK   71  A    between atoms: _173  and  _175
REMARK   72  A    between atoms: _175  and  _176
REMARK   73  A    between atoms: _175  and  _178
REMARK   74  A    between atoms: _178  and  _179
REMARK   75  A    between atoms: _182  and  _184
REMARK   76  A    between atoms: _184  and  _185
REMARK   77  A    between atoms: _184  and  _187
REMARK   78  A    between atoms: _187  and  _188
REMARK   79  A    between atoms: _194  and  _196
REMARK   80  A    between atoms: _196  and  _197
REMARK   81  A    between atoms: _196  and  _199
REMARK   82  A    between atoms: _199  and  _200
REMARK   83  A    between atoms: _205  and  _206
REMARK   84  A    between atoms: _208  and  _210
REMARK   85  A    between atoms: _210  and  _211
REMARK   86  A    between atoms: _213  and  _215
REMARK   87  A    between atoms: _215  and  _216
REMARK   88  A    between atoms: _218  and  _220
REMARK   89  A    between atoms: _220  and  _221
REMARK   90  A    between atoms: _220  and  _223
REMARK   91  A    between atoms: _223  and  _224
REMARK   92  A    between atoms: _234  and  _236
REMARK   93  A    between atoms: _236  and  _237
REMARK   94  A    between atoms: _236  and  _239
REMARK   95  A    between atoms: _239  and  _240
REMARK   96  A    between atoms: _245  and  _247
REMARK   97  A    between atoms: _247  and  _248
REMARK   98  A    between atoms: _247  and  _250
REMARK   99  A    between atoms: _250  and  _251
REMARK  100  A    between atoms: _251  and  _252
REMARK  101  A    between atoms: _257  and  _259
REMARK  102  A    between atoms: _259  and  _260
REMARK  103  A    between atoms: _263  and  _265
REMARK  104  A    between atoms: _265  and  _266
REMARK  105  A    between atoms: _265  and  _268
REMARK  106  A    between atoms: _268  and  _269
REMARK  107  A    between atoms: _274  and  _275
REMARK  108  A    between atoms: _277  and  _279
REMARK  109  A    between atoms: _279  and  _280
REMARK  110  A    between atoms: _279  and  _282
REMARK  111  A    between atoms: _282  and  _283
REMARK  112  A    between atoms: _286  and  _288
REMARK  113  A    between atoms: _288  and  _289
REMARK  114  A    between atoms: _288  and  _291
REMARK  115  A    between atoms: _291  and  _292
REMARK  116  A    between atoms: _297  and  _298
REMARK  117  A    between atoms: _300  and  _302
REMARK  118  A    between atoms: _302  and  _303
REMARK  119  A    between atoms: _302  and  _305
REMARK  120  A    between atoms: _305  and  _306
REMARK  121  A    between atoms: _306  and  _307
REMARK  122  A    between atoms: _307  and  _308
REMARK  123  A    between atoms: _317  and  _319
REMARK  124  A    between atoms: _319  and  _320
REMARK  125  A    between atoms: _319  and  _322
REMARK  126  A    between atoms: _322  and  _323
REMARK  127  A    between atoms: _323  and  _324
REMARK  128  A    between atoms: _324  and  _325
REMARK  129  A    between atoms: _325  and  _326
REMARK  130  A    between atoms: _330  and  _332
REMARK  131  A    between atoms: _332  and  _333
REMARK  132  A    between atoms: _332  and  _335
REMARK  133  A    between atoms: _335  and  _336
REMARK  134  A    between atoms: _336  and  _337
REMARK  135  A    between atoms: _340  and  _342
REMARK  136  A    between atoms: _342  and  _343
REMARK  137  A    between atoms: _342  and  _345
REMARK  138  A    between atoms: _348  and  _350
REMARK  139  A    between atoms: _350  and  _351
REMARK  140  A    between atoms: _350  and  _353
REMARK  141  A    between atoms: _353  and  _354
REMARK                            x       y       z     vdW  Elec       q    Type
REMARK                         _______ _______ _______ _____ _____    ______ ____
ROOT
ATOM      1  O   HOH     1      -8.450 -10.101  -6.467  0.00  0.00    +0.000 OA
ENDROOT
TORSDOF 0
REMARK  Name = ../refined-set-2016/3arr/3arr_pocket.pdb
REMARK  141 active torsions:
REMARK  status: ('A' for Active; 'I' for Inactive)
REMARK    1  A    between atoms: _1  and  _3
REMARK    2  A    between atoms: _3  and  _4
REMARK    3  A    between atoms: _3  and  _6
REMARK    4  A    between atoms: _6  and  _7
REMARK    5  A    between atoms: _17  and  _19
REMARK    6  A    between atoms: _19  and  _20
REMARK    7  A    between atoms: _19  and  _22
REMARK    8  A    between atoms: _22  and  _23
REMARK    9  A    between atoms: _26  and  _28
REMARK   10  A    between atoms: _28  and  _29
REMARK   11  A    between atoms: _28  and  _31
REMARK   12  A    between atoms: _31  and  _32
REMARK   13  A    between atoms: _32  and  _33
REMARK   14  A    between atoms: _36  and  _38
REMARK   15  A    between atoms: _38  and  _39
REMARK   16  A    between atoms: _38  and  _41
REMARK   17  A    between atoms: _41  and  _42
REMARK   18  A    between atoms: _48  and  _50
REMARK   19  A    between atoms: _50  and  _51
REMARK   20  A    between atoms: _53  and  _55
REMARK   21  A    between atoms: _55  and  _56
REMARK   22  A    between atoms: _58  and  _60
REMARK   23  A    between atoms: _60  and  _61
REMARK   24  A    between atoms: _63  and  _65
REMARK   25  A    between atoms: _65  and  _66
REMARK   26  A    between atoms: _69  and  _71
REMARK   27  A    between atoms: _71  and  _72
REMARK   28  A    between atoms: _71  and  _74
REMARK   29  A    between atoms: _74  and  _75
REMARK   30  A    between atoms: _78  and  _80
REMARK   31  A    between atoms: _80  and  _81
REMARK   32  A    between atoms: _83  and  _85
REMARK   33  A    between atoms: _85  and  _86
REMARK   34  A    between atoms: _85  and  _88
REMARK   35  A    between atoms: _91  and  _93
REMARK   36  A    between atoms: _93  and  _94
REMARK   37  A    between atoms: _96  and  _98
REMARK   38  A    between atoms: _98  and  _99
REMARK   39  A    between atoms: _98  and  _101
REMARK   40  A    between atoms: _101  and  _102
REMARK   41  A    between atoms: _107  and  _108
REMARK   42  A    between atoms: _110  and  _112
REMARK   43  A    between atoms: _112  and  _113
REMARK   44  A    between atoms: _112  and  _115
REMARK   45  A    between atoms: _115  and  _116
REMARK   46  A    between atoms: _119  and  _121
REMARK   47  A    between atoms: _121  and  _122
REMARK   48  A    between atoms: _121  and  _124
REMARK   49  A    between atoms: _124  and  _125
REMARK   50  A    between atoms: _125  and  _126
REMARK   51  A    between atoms: _126  and  _127
REMARK   52  A    between atoms: _127  and  _128
REMARK   53  A    between atoms: _132  and  _134
REMARK   54  A    between atoms: _134  and  _135
REMARK   55  A    between atoms: _134  and  _137
REMARK   56  A    between atoms: _137  and  _138
REMARK   57  A    between atoms: _141  and  _143
REMARK   58  A    between atoms: _143  and  _144
REMARK   59  A    between atoms: _143  and  _146
REMARK   60  A    between atoms: _146  and  _147
REMARK   61  A    between atoms: _147  and  _148
REMARK   62  A    between atoms: _150  and  _152
REMARK   63  A    between atoms: _152  and  _153
REMARK   64  A    between atoms: _152  and  _155
REMARK   65  A    between atoms: _155  and  _156
REMARK   66  A    between atoms: _159  and  _161
REMARK   67  A    between atoms: _161  and  _162
REMARK   68  A    between atoms: _161  and  _164
REMARK   69  A    between atoms: _164  and  _165
REMARK   70  A    between atoms: _170  and  _171
REMARK   71  A    between atoms: _173  and  _175
REMARK   72  A    between atoms: _175  and  _176
REMARK   73  A    between atoms: _175  and  _178
REMARK   74  A    between atoms: _178  and  _179
REMARK   75  A    between atoms: _182  and  _184
REMARK   76  A    between atoms: _184  and  _185
REMARK   77  A    between atoms: _184  and  _187
REMARK   78  A    between atoms: _187  and  _188
REMARK   79  A    between atoms: _194  and  _196
REMARK   80  A    between atoms: _196  and  _197
REMARK   81  A    between atoms: _196  and  _199
REMARK   82  A    between atoms: _199  and  _200
REMARK   83  A    between atoms: _205  and  _206
REMARK   84  A    between atoms: _208  and  _210
REMARK   85  A    between atoms: _210  and  _211
REMARK   86  A    between atoms: _213  and  _215
REMARK   87  A    between atoms: _215  and  _216
REMARK   88  A    between atoms: _218  and  _220
REMARK   89  A    between atoms: _220  and  _221
REMARK   90  A    between atoms: _220  and  _223
REMARK   91  A    between atoms: _223  and  _224
REMARK   92  A    between atoms: _234  and  _236
REMARK   93  A    between atoms: _236  and  _237
REMARK   94  A    between atoms: _236  and  _239
REMARK   95  A    between atoms: _239  and  _240
REMARK   96  A    between atoms: _245  and  _247
REMARK   97  A    between atoms: _247  and  _248
REMARK   98  A    between atoms: _247  and  _250
REMARK   99  A    between atoms: _250  and  _251
REMARK  100  A    between atoms: _251  and  _252
REMARK  101  A    between atoms: _257  and  _259
REMARK  102  A    between atoms: _259  and  _260
REMARK  103  A    between atoms: _263  and  _265
REMARK  104  A    between atoms: _265  and  _266
REMARK  105  A    between atoms: _265  and  _268
REMARK  106  A    between atoms: _268  and  _269
REMARK  107  A    between atoms: _274  and  _275
REMARK  108  A    between atoms: _277  and  _279
REMARK  109  A    between atoms: _279  and  _280
REMARK  110  A    between atoms: _279  and  _282
REMARK  111  A    between atoms: _282  and  _283
REMARK  112  A    between atoms: _286  and  _288
REMARK  113  A    between atoms: _288  and  _289
REMARK  114  A    between atoms: _288  and  _291
REMARK  115  A    between atoms: _291  and  _292
REMARK  116  A    between atoms: _297  and  _298
REMARK  117  A    between atoms: _300  and  _302
REMARK  118  A    between atoms: _302  and  _303
REMARK  119  A    between atoms: _302  and  _305
REMARK  120  A    between atoms: _305  and  _306
REMARK  121  A    between atoms: _306  and  _307
REMARK  122  A    between atoms: _307  and  _308
REMARK  123  A    between atoms: _317  and  _319
REMARK  124  A    between atoms: _319  and  _320
REMARK  125  A    between atoms: _319  and  _322
REMARK  126  A    between atoms: _322  and  _323
REMARK  127  A    between atoms: _323  and  _324
REMARK  128  A    between atoms: _324  and  _325
REMARK  129  A    between atoms: _325  and  _326
REMARK  130  A    between atoms: _330  and  _332
REMARK  131  A    between atoms: _332  and  _333
REMARK  132  A    between atoms: _332  and  _335
REMARK  133  A    between atoms: _335  and  _336
REMARK  134  A    between atoms: _336  and  _337
REMARK  135  A    between atoms: _340  and  _342
REMARK  136  A    between atoms: _342  and  _343
REMARK  137  A    between atoms: _342  and  _345
REMARK  138  A    between atoms: _348  and  _350
REMARK  139  A    between atoms: _350  and  _351
REMARK  140  A    between atoms: _350  and  _353
REMARK  141  A    between atoms: _353  and  _354
REMARK                            x       y       z     vdW  Elec       q    Type
REMARK                         _______ _______ _______ _____ _____    ______ ____
ROOT
ATOM      1  O   HOH     1      -6.639   1.289   1.491  0.00  0.00    +0.000 OA
ENDROOT
TORSDOF 0
REMARK  Name = ../refined-set-2016/3arr/3arr_pocket.pdb
REMARK  141 active torsions:
REMARK  status: ('A' for Active; 'I' for Inactive)
REMARK    1  A    between atoms: _1  and  _3
REMARK    2  A    between atoms: _3  and  _4
REMARK    3  A    between atoms: _3  and  _6
REMARK    4  A    between atoms: _6  and  _7
REMARK    5  A    between atoms: _17  and  _19
REMARK    6  A    between atoms: _19  and  _20
REMARK    7  A    between atoms: _19  and  _22
REMARK    8  A    between atoms: _22  and  _23
REMARK    9  A    between atoms: _26  and  _28
REMARK   10  A    between atoms: _28  and  _29
REMARK   11  A    between atoms: _28  and  _31
REMARK   12  A    between atoms: _31  and  _32
REMARK   13  A    between atoms: _32  and  _33
REMARK   14  A    between atoms: _36  and  _38
REMARK   15  A    between atoms: _38  and  _39
REMARK   16  A    between atoms: _38  and  _41
REMARK   17  A    between atoms: _41  and  _42
REMARK   18  A    between atoms: _48  and  _50
REMARK   19  A    between atoms: _50  and  _51
REMARK   20  A    between atoms: _53  and  _55
REMARK   21  A    between atoms: _55  and  _56
REMARK   22  A    between atoms: _58  and  _60
REMARK   23  A    between atoms: _60  and  _61
REMARK   24  A    between atoms: _63  and  _65
REMARK   25  A    between atoms: _65  and  _66
REMARK   26  A    between atoms: _69  and  _71
REMARK   27  A    between atoms: _71  and  _72
REMARK   28  A    between atoms: _71  and  _74
REMARK   29  A    between atoms: _74  and  _75
REMARK   30  A    between atoms: _78  and  _80
REMARK   31  A    between atoms: _80  and  _81
REMARK   32  A    between atoms: _83  and  _85
REMARK   33  A    between atoms: _85  and  _86
REMARK   34  A    between atoms: _85  and  _88
REMARK   35  A    between atoms: _91  and  _93
REMARK   36  A    between atoms: _93  and  _94
REMARK   37  A    between atoms: _96  and  _98
REMARK   38  A    between atoms: _98  and  _99
REMARK   39  A    between atoms: _98  and  _101
REMARK   40  A    between atoms: _101  and  _102
REMARK   41  A    between atoms: _107  and  _108
REMARK   42  A    between atoms: _110  and  _112
REMARK   43  A    between atoms: _112  and  _113
REMARK   44  A    between atoms: _112  and  _115
REMARK   45  A    between atoms: _115  and  _116
REMARK   46  A    between atoms: _119  and  _121
REMARK   47  A    between atoms: _121  and  _122
REMARK   48  A    between atoms: _121  and  _124
REMARK   49  A    between atoms: _124  and  _125
REMARK   50  A    between atoms: _125  and  _126
REMARK   51  A    between atoms: _126  and  _127
REMARK   52  A    between atoms: _127  and  _128
REMARK   53  A    between atoms: _132  and  _134
REMARK   54  A    between atoms: _134  and  _135
REMARK   55  A    between atoms: _134  and  _137
REMARK   56  A    between atoms: _137  and  _138
REMARK   57  A    between atoms: _141  and  _143
REMARK   58  A    between atoms: _143  and  _144
REMARK   59  A    between atoms: _143  and  _146
REMARK   60  A    between atoms: _146  and  _147
REMARK   61  A    between atoms: _147  and  _148
REMARK   62  A    between atoms: _150  and  _152
REMARK   63  A    between atoms: _152  and  _153
REMARK   64  A    between atoms: _152  and  _155
REMARK   65  A    between atoms: _155  and  _156
REMARK   66  A    between atoms: _159  and  _161
REMARK   67  A    between atoms: _161  and  _162
REMARK   68  A    between atoms: _161  and  _164
REMARK   69  A    between atoms: _164  and  _165
REMARK   70  A    between atoms: _170  and  _171
REMARK   71  A    between atoms: _173  and  _175
REMARK   72  A    between atoms: _175  and  _176
REMARK   73  A    between atoms: _175  and  _178
REMARK   74  A    between atoms: _178  and  _179
REMARK   75  A    between atoms: _182  and  _184
REMARK   76  A    between atoms: _184  and  _185
REMARK   77  A    between atoms: _184  and  _187
REMARK   78  A    between atoms: _187  and  _188
REMARK   79  A    between atoms: _194  and  _196
REMARK   80  A    between atoms: _196  and  _197
REMARK   81  A    between atoms: _196  and  _199
REMARK   82  A    between atoms: _199  and  _200
REMARK   83  A    between atoms: _205  and  _206
REMARK   84  A    between atoms: _208  and  _210
REMARK   85  A    between atoms: _210  and  _211
REMARK   86  A    between atoms: _213  and  _215
REMARK   87  A    between atoms: _215  and  _216
REMARK   88  A    between atoms: _218  and  _220
REMARK   89  A    between atoms: _220  and  _221
REMARK   90  A    between atoms: _220  and  _223
REMARK   91  A    between atoms: _223  and  _224
REMARK   92  A    between atoms: _234  and  _236
REMARK   93  A    between atoms: _236  and  _237
REMARK   94  A    between atoms: _236  and  _239
REMARK   95  A    between atoms: _239  and  _240
REMARK   96  A    between atoms: _245  and  _247
REMARK   97  A    between atoms: _247  and  _248
REMARK   98  A    between atoms: _247  and  _250
REMARK   99  A    between atoms: _250  and  _251
REMARK  100  A    between atoms: _251  and  _252
REMARK  101  A    between atoms: _257  and  _259
REMARK  102  A    between atoms: _259  and  _260
REMARK  103  A    between atoms: _263  and  _265
REMARK  104  A    between atoms: _265  and  _266
REMARK  105  A    between atoms: _265  and  _268
REMARK  106  A    between atoms: _268  and  _269
REMARK  107  A    between atoms: _274  and  _275
REMARK  108  A    between atoms: _277  and  _279
REMARK  109  A    between atoms: _279  and  _280
REMARK  110  A    between atoms: _279  and  _282
REMARK  111  A    between atoms: _282  and  _283
REMARK  112  A    between atoms: _286  and  _288
REMARK  113  A    between atoms: _288  and  _289
REMARK  114  A    between atoms: _288  and  _291
REMARK  115  A    between atoms: _291  and  _292
REMARK  116  A    between atoms: _297  and  _298
REMARK  117  A    between atoms: _300  and  _302
REMARK  118  A    between atoms: _302  and  _303
REMARK  119  A    between atoms: _302  and  _305
REMARK  120  A    between atoms: _305  and  _306
REMARK  121  A    between atoms: _306  and  _307
REMARK  122  A    between atoms: _307  and  _308
REMARK  123  A    between atoms: _317  and  _319
REMARK  124  A    between atoms: _319  and  _320
REMARK  125  A    between atoms: _319  and  _322
REMARK  126  A    between atoms: _322  and  _323
REMARK  127  A    between atoms: _323  and  _324
REMARK  128  A    between atoms: _324  and  _325
REMARK  129  A    between atoms: _325  and  _326
REMARK  130  A    between atoms: _330  and  _332
REMARK  131  A    between atoms: _332  and  _333
REMARK  132  A    between atoms: _332  and  _335
REMARK  133  A    between atoms: _335  and  _336
REMARK  134  A    between atoms: _336  and  _337
REMARK  135  A    between atoms: _340  and  _342
REMARK  136  A    between atoms: _342  and  _343
REMARK  137  A    between atoms: _342  and  _345
REMARK  138  A    between atoms: _348  and  _350
REMARK  139  A    between atoms: _350  and  _351
REMARK  140  A    between atoms: _350  and  _353
REMARK  141  A    between atoms: _353  and  _354
REMARK                            x       y       z     vdW  Elec       q    Type
REMARK                         _______ _______ _______ _____ _____    ______ ____
ROOT
ATOM      1  O   HOH     1     -10.000  -8.500  -4.684  0.00  0.00    +0.000 OA
ENDROOT
TORSDOF 0
REMARK  Name = ../refined-set-2016/3arr/3arr_pocket.pdb
REMARK  141 active torsions:
REMARK  status: ('A' for Active; 'I' for Inactive)
REMARK    1  A    between atoms: _1  and  _3
REMARK    2  A    between atoms: _3  and  _4
REMARK    3  A    between atoms: _3  and  _6
REMARK    4  A    between atoms: _6  and  _7
REMARK    5  A    between atoms: _17  and  _19
REMARK    6  A    between atoms: _19  and  _20
REMARK    7  A    between atoms: _19  and  _22
REMARK    8  A    between atoms: _22  and  _23
REMARK    9  A    between atoms: _26  and  _28
REMARK   10  A    between atoms: _28  and  _29
REMARK   11  A    between atoms: _28  and  _31
REMARK   12  A    between atoms: _31  and  _32
REMARK   13  A    between atoms: _32  and  _33
REMARK   14  A    between atoms: _36  and  _38
REMARK   15  A    between atoms: _38  and  _39
REMARK   16  A    between atoms: _38  and  _41
REMARK   17  A    between atoms: _41  and  _42
REMARK   18  A    between atoms: _48  and  _50
REMARK   19  A    between atoms: _50  and  _51
REMARK   20  A    between atoms: _53  and  _55
REMARK   21  A    between atoms: _55  and  _56
REMARK   22  A    between atoms: _58  and  _60
REMARK   23  A    between atoms: _60  and  _61
REMARK   24  A    between atoms: _63  and  _65
REMARK   25  A    between atoms: _65  and  _66
REMARK   26  A    between atoms: _69  and  _71
REMARK   27  A    between atoms: _71  and  _72
REMARK   28  A    between atoms: _71  and  _74
REMARK   29  A    between atoms: _74  and  _75
REMARK   30  A    between atoms: _78  and  _80
REMARK   31  A    between atoms: _80  and  _81
REMARK   32  A    between atoms: _83  and  _85
REMARK   33  A    between atoms: _85  and  _86
REMARK   34  A    between atoms: _85  and  _88
REMARK   35  A    between atoms: _91  and  _93
REMARK   36  A    between atoms: _93  and  _94
REMARK   37  A    between atoms: _96  and  _98
REMARK   38  A    between atoms: _98  and  _99
REMARK   39  A    between atoms: _98  and  _101
REMARK   40  A    between atoms: _101  and  _102
REMARK   41  A    between atoms: _107  and  _108
REMARK   42  A    between atoms: _110  and  _112
REMARK   43  A    between atoms: _112  and  _113
REMARK   44  A    between atoms: _112  and  _115
REMARK   45  A    between atoms: _115  and  _116
REMARK   46  A    between atoms: _119  and  _121
REMARK   47  A    between atoms: _121  and  _122
REMARK   48  A    between atoms: _121  and  _124
REMARK   49  A    between atoms: _124  and  _125
REMARK   50  A    between atoms: _125  and  _126
REMARK   51  A    between atoms: _126  and  _127
REMARK   52  A    between atoms: _127  and  _128
REMARK   53  A    between atoms: _132  and  _134
REMARK   54  A    between atoms: _134  and  _135
REMARK   55  A    between atoms: _134  and  _137
REMARK   56  A    between atoms: _137  and  _138
REMARK   57  A    between atoms: _141  and  _143
REMARK   58  A    between atoms: _143  and  _144
REMARK   59  A    between atoms: _143  and  _146
REMARK   60  A    between atoms: _146  and  _147
REMARK   61  A    between atoms: _147  and  _148
REMARK   62  A    between atoms: _150  and  _152
REMARK   63  A    between atoms: _152  and  _153
REMARK   64  A    between atoms: _152  and  _155
REMARK   65  A    between atoms: _155  and  _156
REMARK   66  A    between atoms: _159  and  _161
REMARK   67  A    between atoms: _161  and  _162
REMARK   68  A    between atoms: _161  and  _164
REMARK   69  A    between atoms: _164  and  _165
REMARK   70  A    between atoms: _170  and  _171
REMARK   71  A    between atoms: _173  and  _175
REMARK   72  A    between atoms: _175  and  _176
REMARK   73  A    between atoms: _175  and  _178
REMARK   74  A    between atoms: _178  and  _179
REMARK   75  A    between atoms: _182  and  _184
REMARK   76  A    between atoms: _184  and  _185
REMARK   77  A    between atoms: _184  and  _187
REMARK   78  A    between atoms: _187  and  _188
REMARK   79  A    between atoms: _194  and  _196
REMARK   80  A    between atoms: _196  and  _197
REMARK   81  A    between atoms: _196  and  _199
REMARK   82  A    between atoms: _199  and  _200
REMARK   83  A    between atoms: _205  and  _206
REMARK   84  A    between atoms: _208  and  _210
REMARK   85  A    between atoms: _210  and  _211
REMARK   86  A    between atoms: _213  and  _215
REMARK   87  A    between atoms: _215  and  _216
REMARK   88  A    between atoms: _218  and  _220
REMARK   89  A    between atoms: _220  and  _221
REMARK   90  A    between atoms: _220  and  _223
REMARK   91  A    between atoms: _223  and  _224
REMARK   92  A    between atoms: _234  and  _236
REMARK   93  A    between atoms: _236  and  _237
REMARK   94  A    between atoms: _236  and  _239
REMARK   95  A    between atoms: _239  and  _240
REMARK   96  A    between atoms: _245  and  _247
REMARK   97  A    between atoms: _247  and  _248
REMARK   98  A    between atoms: _247  and  _250
REMARK   99  A    between atoms: _250  and  _251
REMARK  100  A    between atoms: _251  and  _252
REMARK  101  A    between atoms: _257  and  _259
REMARK  102  A    between atoms: _259  and  _260
REMARK  103  A    between atoms: _263  and  _265
REMARK  104  A    between atoms: _265  and  _266
REMARK  105  A    between atoms: _265  and  _268
REMARK  106  A    between atoms: _268  and  _269
REMARK  107  A    between atoms: _274  and  _275
REMARK  108  A    between atoms: _277  and  _279
REMARK  109  A    between atoms: _279  and  _280
REMARK  110  A    between atoms: _279  and  _282
REMARK  111  A    between atoms: _282  and  _283
REMARK  112  A    between atoms: _286  and  _288
REMARK  113  A    between atoms: _288  and  _289
REMARK  114  A    between atoms: _288  and  _291
REMARK  115  A    between atoms: _291  and  _292
REMARK  116  A    between atoms: _297  and  _298
REMARK  117  A    between atoms: _300  and  _302
REMARK  118  A    between atoms: _302  and  _303
REMARK  119  A    between atoms: _302  and  _305
REMARK  120  A    between atoms: _305  and  _306
REMARK  121  A    between atoms: _306  and  _307
REMARK  122  A    between atoms: _307  and  _308
REMARK  123  A    between atoms: _317  and  _319
REMARK  124  A    between atoms: _319  and  _320
REMARK  125  A    between atoms: _319  and  _322
REMARK  126  A    between atoms: _322  and  _323
REMARK  127  A    between atoms: _323  and  _324
REMARK  128  A    between atoms: _324  and  _325
REMARK  129  A    between atoms: _325  and  _326
REMARK  130  A    between atoms: _330  and  _332
REMARK  131  A    between atoms: _332  and  _333
REMARK  132  A    between atoms: _332  and  _335
REMARK  133  A    between atoms: _335  and  _336
REMARK  134  A    between atoms: _336  and  _337
REMARK  135  A    between atoms: _340  and  _342
REMARK  136  A    between atoms: _342  and  _343
REMARK  137  A    between atoms: _342  and  _345
REMARK  138  A    between atoms: _348  and  _350
REMARK  139  A    between atoms: _350  and  _351
REMARK  140  A    between atoms: _350  and  _353
REMARK  141  A    between atoms: _353  and  _354
REMARK                            x       y       z     vdW  Elec       q    Type
REMARK                         _______ _______ _______ _____ _____    ______ ____
ROOT
ATOM      1  O   HOH     1      -5.868 -18.634   3.890  0.00  0.00    +0.000 OA
ENDROOT
TORSDOF 0
REMARK  Name = ../refined-set-2016/3arr/3arr_pocket.pdb
REMARK  141 active torsions:
REMARK  status: ('A' for Active; 'I' for Inactive)
REMARK    1  A    between atoms: _1  and  _3
REMARK    2  A    between atoms: _3  and  _4
REMARK    3  A    between atoms: _3  and  _6
REMARK    4  A    between atoms: _6  and  _7
REMARK    5  A    between atoms: _17  and  _19
REMARK    6  A    between atoms: _19  and  _20
REMARK    7  A    between atoms: _19  and  _22
REMARK    8  A    between atoms: _22  and  _23
REMARK    9  A    between atoms: _26  and  _28
REMARK   10  A    between atoms: _28  and  _29
REMARK   11  A    between atoms: _28  and  _31
REMARK   12  A    between atoms: _31  and  _32
REMARK   13  A    between atoms: _32  and  _33
REMARK   14  A    between atoms: _36  and  _38
REMARK   15  A    between atoms: _38  and  _39
REMARK   16  A    between atoms: _38  and  _41
REMARK   17  A    between atoms: _41  and  _42
REMARK   18  A    between atoms: _48  and  _50
REMARK   19  A    between atoms: _50  and  _51
REMARK   20  A    between atoms: _53  and  _55
REMARK   21  A    between atoms: _55  and  _56
REMARK   22  A    between atoms: _58  and  _60
REMARK   23  A    between atoms: _60  and  _61
REMARK   24  A    between atoms: _63  and  _65
REMARK   25  A    between atoms: _65  and  _66
REMARK   26  A    between atoms: _69  and  _71
REMARK   27  A    between atoms: _71  and  _72
REMARK   28  A    between atoms: _71  and  _74
REMARK   29  A    between atoms: _74  and  _75
REMARK   30  A    between atoms: _78  and  _80
REMARK   31  A    between atoms: _80  and  _81
REMARK   32  A    between atoms: _83  and  _85
REMARK   33  A    between atoms: _85  and  _86
REMARK   34  A    between atoms: _85  and  _88
REMARK   35  A    between atoms: _91  and  _93
REMARK   36  A    between atoms: _93  and  _94
REMARK   37  A    between atoms: _96  and  _98
REMARK   38  A    between atoms: _98  and  _99
REMARK   39  A    between atoms: _98  and  _101
REMARK   40  A    between atoms: _101  and  _102
REMARK   41  A    between atoms: _107  and  _108
REMARK   42  A    between atoms: _110  and  _112
REMARK   43  A    between atoms: _112  and  _113
REMARK   44  A    between atoms: _112  and  _115
REMARK   45  A    between atoms: _115  and  _116
REMARK   46  A    between atoms: _119  and  _121
REMARK   47  A    between atoms: _121  and  _122
REMARK   48  A    between atoms: _121  and  _124
REMARK   49  A    between atoms: _124  and  _125
REMARK   50  A    between atoms: _125  and  _126
REMARK   51  A    between atoms: _126  and  _127
REMARK   52  A    between atoms: _127  and  _128
REMARK   53  A    between atoms: _132  and  _134
REMARK   54  A    between atoms: _134  and  _135
REMARK   55  A    between atoms: _134  and  _137
REMARK   56  A    between atoms: _137  and  _138
REMARK   57  A    between atoms: _141  and  _143
REMARK   58  A    between atoms: _143  and  _144
REMARK   59  A    between atoms: _143  and  _146
REMARK   60  A    between atoms: _146  and  _147
REMARK   61  A    between atoms: _147  and  _148
REMARK   62  A    between atoms: _150  and  _152
REMARK   63  A    between atoms: _152  and  _153
REMARK   64  A    between atoms: _152  and  _155
REMARK   65  A    between atoms: _155  and  _156
REMARK   66  A    between atoms: _159  and  _161
REMARK   67  A    between atoms: _161  and  _162
REMARK   68  A    between atoms: _161  and  _164
REMARK   69  A    between atoms: _164  and  _165
REMARK   70  A    between atoms: _170  and  _171
REMARK   71  A    between atoms: _173  and  _175
REMARK   72  A    between atoms: _175  and  _176
REMARK   73  A    between atoms: _175  and  _178
REMARK   74  A    between atoms: _178  and  _179
REMARK   75  A    between atoms: _182  and  _184
REMARK   76  A    between atoms: _184  and  _185
REMARK   77  A    between atoms: _184  and  _187
REMARK   78  A    between atoms: _187  and  _188
REMARK   79  A    between atoms: _194  and  _196
REMARK   80  A    between atoms: _196  and  _197
REMARK   81  A    between atoms: _196  and  _199
REMARK   82  A    between atoms: _199  and  _200
REMARK   83  A    between atoms: _205  and  _206
REMARK   84  A    between atoms: _208  and  _210
REMARK   85  A    between atoms: _210  and  _211
REMARK   86  A    between atoms: _213  and  _215
REMARK   87  A    between atoms: _215  and  _216
REMARK   88  A    between atoms: _218  and  _220
REMARK   89  A    between atoms: _220  and  _221
REMARK   90  A    between atoms: _220  and  _223
REMARK   91  A    between atoms: _223  and  _224
REMARK   92  A    between atoms: _234  and  _236
REMARK   93  A    between atoms: _236  and  _237
REMARK   94  A    between atoms: _236  and  _239
REMARK   95  A    between atoms: _239  and  _240
REMARK   96  A    between atoms: _245  and  _247
REMARK   97  A    between atoms: _247  and  _248
REMARK   98  A    between atoms: _247  and  _250
REMARK   99  A    between atoms: _250  and  _251
REMARK  100  A    between atoms: _251  and  _252
REMARK  101  A    between atoms: _257  and  _259
REMARK  102  A    between atoms: _259  and  _260
REMARK  103  A    between atoms: _263  and  _265
REMARK  104  A    between atoms: _265  and  _266
REMARK  105  A    between atoms: _265  and  _268
REMARK  106  A    between atoms: _268  and  _269
REMARK  107  A    between atoms: _274  and  _275
REMARK  108  A    between atoms: _277  and  _279
REMARK  109  A    between atoms: _279  and  _280
REMARK  110  A    between atoms: _279  and  _282
REMARK  111  A    between atoms: _282  and  _283
REMARK  112  A    between atoms: _286  and  _288
REMARK  113  A    between atoms: _288  and  _289
REMARK  114  A    between atoms: _288  and  _291
REMARK  115  A    between atoms: _291  and  _292
REMARK  116  A    between atoms: _297  and  _298
REMARK  117  A    between atoms: _300  and  _302
REMARK  118  A    between atoms: _302  and  _303
REMARK  119  A    between atoms: _302  and  _305
REMARK  120  A    between atoms: _305  and  _306
REMARK  121  A    between atoms: _306  and  _307
REMARK  122  A    between atoms: _307  and  _308
REMARK  123  A    between atoms: _317  and  _319
REMARK  124  A    between atoms: _319  and  _320
REMARK  125  A    between atoms: _319  and  _322
REMARK  126  A    between atoms: _322  and  _323
REMARK  127  A    between atoms: _323  and  _324
REMARK  128  A    between atoms: _324  and  _325
REMARK  129  A    between atoms: _325  and  _326
REMARK  130  A    between atoms: _330  and  _332
REMARK  131  A    between atoms: _332  and  _333
REMARK  132  A    between atoms: _332  and  _335
REMARK  133  A    between atoms: _335  and  _336
REMARK  134  A    between atoms: _336  and  _337
REMARK  135  A    between atoms: _340  and  _342
REMARK  136  A    between atoms: _342  and  _343
REMARK  137  A    between atoms: _342  and  _345
REMARK  138  A    between atoms: _348  and  _350
REMARK  139  A    between atoms: _350  and  _351
REMARK  140  A    between atoms: _350  and  _353
REMARK  141  A    between atoms: _353  and  _354
REMARK                            x       y       z     vdW  Elec       q    Type
REMARK                         _______ _______ _______ _____ _____    ______ ____
ROOT
ATOM      1  O   HOH     1      -1.875  -2.199   9.641  0.00  0.00    +0.000 OA
ENDROOT
TORSDOF 0
REMARK  Name = ../refined-set-2016/3arr/3arr_pocket.pdb
REMARK  141 active torsions:
REMARK  status: ('A' for Active; 'I' for Inactive)
REMARK    1  A    between atoms: _1  and  _3
REMARK    2  A    between atoms: _3  and  _4
REMARK    3  A    between atoms: _3  and  _6
REMARK    4  A    between atoms: _6  and  _7
REMARK    5  A    between atoms: _17  and  _19
REMARK    6  A    between atoms: _19  and  _20
REMARK    7  A    between atoms: _19  and  _22
REMARK    8  A    between atoms: _22  and  _23
REMARK    9  A    between atoms: _26  and  _28
REMARK   10  A    between atoms: _28  and  _29
REMARK   11  A    between atoms: _28  and  _31
REMARK   12  A    between atoms: _31  and  _32
REMARK   13  A    between atoms: _32  and  _33
REMARK   14  A    between atoms: _36  and  _38
REMARK   15  A    between atoms: _38  and  _39
REMARK   16  A    between atoms: _38  and  _41
REMARK   17  A    between atoms: _41  and  _42
REMARK   18  A    between atoms: _48  and  _50
REMARK   19  A    between atoms: _50  and  _51
REMARK   20  A    between atoms: _53  and  _55
REMARK   21  A    between atoms: _55  and  _56
REMARK   22  A    between atoms: _58  and  _60
REMARK   23  A    between atoms: _60  and  _61
REMARK   24  A    between atoms: _63  and  _65
REMARK   25  A    between atoms: _65  and  _66
REMARK   26  A    between atoms: _69  and  _71
REMARK   27  A    between atoms: _71  and  _72
REMARK   28  A    between atoms: _71  and  _74
REMARK   29  A    between atoms: _74  and  _75
REMARK   30  A    between atoms: _78  and  _80
REMARK   31  A    between atoms: _80  and  _81
REMARK   32  A    between atoms: _83  and  _85
REMARK   33  A    between atoms: _85  and  _86
REMARK   34  A    between atoms: _85  and  _88
REMARK   35  A    between atoms: _91  and  _93
REMARK   36  A    between atoms: _93  and  _94
REMARK   37  A    between atoms: _96  and  _98
REMARK   38  A    between atoms: _98  and  _99
REMARK   39  A    between atoms: _98  and  _101
REMARK   40  A    between atoms: _101  and  _102
REMARK   41  A    between atoms: _107  and  _108
REMARK   42  A    between atoms: _110  and  _112
REMARK   43  A    between atoms: _112  and  _113
REMARK   44  A    between atoms: _112  and  _115
REMARK   45  A    between atoms: _115  and  _116
REMARK   46  A    between atoms: _119  and  _121
REMARK   47  A    between atoms: _121  and  _122
REMARK   48  A    between atoms: _121  and  _124
REMARK   49  A    between atoms: _124  and  _125
REMARK   50  A    between atoms: _125  and  _126
REMARK   51  A    between atoms: _126  and  _127
REMARK   52  A    between atoms: _127  and  _128
REMARK   53  A    between atoms: _132  and  _134
REMARK   54  A    between atoms: _134  and  _135
REMARK   55  A    between atoms: _134  and  _137
REMARK   56  A    between atoms: _137  and  _138
REMARK   57  A    between atoms: _141  and  _143
REMARK   58  A    between atoms: _143  and  _144
REMARK   59  A    between atoms: _143  and  _146
REMARK   60  A    between atoms: _146  and  _147
REMARK   61  A    between atoms: _147  and  _148
REMARK   62  A    between atoms: _150  and  _152
REMARK   63  A    between atoms: _152  and  _153
REMARK   64  A    between atoms: _152  and  _155
REMARK   65  A    between atoms: _155  and  _156
REMARK   66  A    between atoms: _159  and  _161
REMARK   67  A    between atoms: _161  and  _162
REMARK   68  A    between atoms: _161  and  _164
REMARK   69  A    between atoms: _164  and  _165
REMARK   70  A    between atoms: _170  and  _171
REMARK   71  A    between atoms: _173  and  _175
REMARK   72  A    between atoms: _175  and  _176
REMARK   73  A    between atoms: _175  and  _178
REMARK   74  A    between atoms: _178  and  _179
REMARK   75  A    between atoms: _182  and  _184
REMARK   76  A    between atoms: _184  and  _185
REMARK   77  A    between atoms: _184  and  _187
REMARK   78  A    between atoms: _187  and  _188
REMARK   79  A    between atoms: _194  and  _196
REMARK   80  A    between atoms: _196  and  _197
REMARK   81  A    between atoms: _196  and  _199
REMARK   82  A    between atoms: _199  and  _200
REMARK   83  A    between atoms: _205  and  _206
REMARK   84  A    between atoms: _208  and  _210
REMARK   85  A    between atoms: _210  and  _211
REMARK   86  A    between atoms: _213  and  _215
REMARK   87  A    between atoms: _215  and  _216
REMARK   88  A    between atoms: _218  and  _220
REMARK   89  A    between atoms: _220  and  _221
REMARK   90  A    between atoms: _220  and  _223
REMARK   91  A    between atoms: _223  and  _224
REMARK   92  A    between atoms: _234  and  _236
REMARK   93  A    between atoms: _236  and  _237
REMARK   94  A    between atoms: _236  and  _239
REMARK   95  A    between atoms: _239  and  _240
REMARK   96  A    between atoms: _245  and  _247
REMARK   97  A    between atoms: _247  and  _248
REMARK   98  A    between atoms: _247  and  _250
REMARK   99  A    between atoms: _250  and  _251
REMARK  100  A    between atoms: _251  and  _252
REMARK  101  A    between atoms: _257  and  _259
REMARK  102  A    between atoms: _259  and  _260
REMARK  103  A    between atoms: _263  and  _265
REMARK  104  A    between atoms: _265  and  _266
REMARK  105  A    between atoms: _265  and  _268
REMARK  106  A    between atoms: _268  and  _269
REMARK  107  A    between atoms: _274  and  _275
REMARK  108  A    between atoms: _277  and  _279
REMARK  109  A    between atoms: _279  and  _280
REMARK  110  A    between atoms: _279  and  _282
REMARK  111  A    between atoms: _282  and  _283
REMARK  112  A    between atoms: _286  and  _288
REMARK  113  A    between atoms: _288  and  _289
REMARK  114  A    between atoms: _288  and  _291
REMARK  115  A    between atoms: _291  and  _292
REMARK  116  A    between atoms: _297  and  _298
REMARK  117  A    between atoms: _300  and  _302
REMARK  118  A    between atoms: _302  and  _303
REMARK  119  A    between atoms: _302  and  _305
REMARK  120  A    between atoms: _305  and  _306
REMARK  121  A    between atoms: _306  and  _307
REMARK  122  A    between atoms: _307  and  _308
REMARK  123  A    between atoms: _317  and  _319
REMARK  124  A    between atoms: _319  and  _320
REMARK  125  A    between atoms: _319  and  _322
REMARK  126  A    between atoms: _322  and  _323
REMARK  127  A    between atoms: _323  and  _324
REMARK  128  A    between atoms: _324  and  _325
REMARK  129  A    between atoms: _325  and  _326
REMARK  130  A    between atoms: _330  and  _332
REMARK  131  A    between atoms: _332  and  _333
REMARK  132  A    between atoms: _332  and  _335
REMARK  133  A    between atoms: _335  and  _336
REMARK  134  A    between atoms: _336  and  _337
REMARK  135  A    between atoms: _340  and  _342
REMARK  136  A    between atoms: _342  and  _343
REMARK  137  A    between atoms: _342  and  _345
REMARK  138  A    between atoms: _348  and  _350
REMARK  139  A    between atoms: _350  and  _351
REMARK  140  A    between atoms: _350  and  _353
REMARK  141  A    between atoms: _353  and  _354
REMARK                            x       y       z     vdW  Elec       q    Type
REMARK                         _______ _______ _______ _____ _____    ______ ____
ROOT
ATOM      1  O   HOH     1      -4.302  -4.207  11.334  0.00  0.00    +0.000 OA
ENDROOT
TORSDOF 0
REMARK  Name = ../refined-set-2016/3arr/3arr_pocket.pdb
REMARK  141 active torsions:
REMARK  status: ('A' for Active; 'I' for Inactive)
REMARK    1  A    between atoms: _1  and  _3
REMARK    2  A    between atoms: _3  and  _4
REMARK    3  A    between atoms: _3  and  _6
REMARK    4  A    between atoms: _6  and  _7
REMARK    5  A    between atoms: _17  and  _19
REMARK    6  A    between atoms: _19  and  _20
REMARK    7  A    between atoms: _19  and  _22
REMARK    8  A    between atoms: _22  and  _23
REMARK    9  A    between atoms: _26  and  _28
REMARK   10  A    between atoms: _28  and  _29
REMARK   11  A    between atoms: _28  and  _31
REMARK   12  A    between atoms: _31  and  _32
REMARK   13  A    between atoms: _32  and  _33
REMARK   14  A    between atoms: _36  and  _38
REMARK   15  A    between atoms: _38  and  _39
REMARK   16  A    between atoms: _38  and  _41
REMARK   17  A    between atoms: _41  and  _42
REMARK   18  A    between atoms: _48  and  _50
REMARK   19  A    between atoms: _50  and  _51
REMARK   20  A    between atoms: _53  and  _55
REMARK   21  A    between atoms: _55  and  _56
REMARK   22  A    between atoms: _58  and  _60
REMARK   23  A    between atoms: _60  and  _61
REMARK   24  A    between atoms: _63  and  _65
REMARK   25  A    between atoms: _65  and  _66
REMARK   26  A    between atoms: _69  and  _71
REMARK   27  A    between atoms: _71  and  _72
REMARK   28  A    between atoms: _71  and  _74
REMARK   29  A    between atoms: _74  and  _75
REMARK   30  A    between atoms: _78  and  _80
REMARK   31  A    between atoms: _80  and  _81
REMARK   32  A    between atoms: _83  and  _85
REMARK   33  A    between atoms: _85  and  _86
REMARK   34  A    between atoms: _85  and  _88
REMARK   35  A    between atoms: _91  and  _93
REMARK   36  A    between atoms: _93  and  _94
REMARK   37  A    between atoms: _96  and  _98
REMARK   38  A    between atoms: _98  and  _99
REMARK   39  A    between atoms: _98  and  _101
REMARK   40  A    between atoms: _101  and  _102
REMARK   41  A    between atoms: _107  and  _108
REMARK   42  A    between atoms: _110  and  _112
REMARK   43  A    between atoms: _112  and  _113
REMARK   44  A    between atoms: _112  and  _115
REMARK   45  A    between atoms: _115  and  _116
REMARK   46  A    between atoms: _119  and  _121
REMARK   47  A    between atoms: _121  and  _122
REMARK   48  A    between atoms: _121  and  _124
REMARK   49  A    between atoms: _124  and  _125
REMARK   50  A    between atoms: _125  and  _126
REMARK   51  A    between atoms: _126  and  _127
REMARK   52  A    between atoms: _127  and  _128
REMARK   53  A    between atoms: _132  and  _134
REMARK   54  A    between atoms: _134  and  _135
REMARK   55  A    between atoms: _134  and  _137
REMARK   56  A    between atoms: _137  and  _138
REMARK   57  A    between atoms: _141  and  _143
REMARK   58  A    between atoms: _143  and  _144
REMARK   59  A    between atoms: _143  and  _146
REMARK   60  A    between atoms: _146  and  _147
REMARK   61  A    between atoms: _147  and  _148
REMARK   62  A    between atoms: _150  and  _152
REMARK   63  A    between atoms: _152  and  _153
REMARK   64  A    between atoms: _152  and  _155
REMARK   65  A    between atoms: _155  and  _156
REMARK   66  A    between atoms: _159  and  _161
REMARK   67  A    between atoms: _161  and  _162
REMARK   68  A    between atoms: _161  and  _164
REMARK   69  A    between atoms: _164  and  _165
REMARK   70  A    between atoms: _170  and  _171
REMARK   71  A    between atoms: _173  and  _175
REMARK   72  A    between atoms: _175  and  _176
REMARK   73  A    between atoms: _175  and  _178
REMARK   74  A    between atoms: _178  and  _179
REMARK   75  A    between atoms: _182  and  _184
REMARK   76  A    between atoms: _184  and  _185
REMARK   77  A    between atoms: _184  and  _187
REMARK   78  A    between atoms: _187  and  _188
REMARK   79  A    between atoms: _194  and  _196
REMARK   80  A    between atoms: _196  and  _197
REMARK   81  A    between atoms: _196  and  _199
REMARK   82  A    between atoms: _199  and  _200
REMARK   83  A    between atoms: _205  and  _206
REMARK   84  A    between atoms: _208  and  _210
REMARK   85  A    between atoms: _210  and  _211
REMARK   86  A    between atoms: _213  and  _215
REMARK   87  A    between atoms: _215  and  _216
REMARK   88  A    between atoms: _218  and  _220
REMARK   89  A    between atoms: _220  and  _221
REMARK   90  A    between atoms: _220  and  _223
REMARK   91  A    between atoms: _223  and  _224
REMARK   92  A    between atoms: _234  and  _236
REMARK   93  A    between atoms: _236  and  _237
REMARK   94  A    between atoms: _236  and  _239
REMARK   95  A    between atoms: _239  and  _240
REMARK   96  A    between atoms: _245  and  _247
REMARK   97  A    between atoms: _247  and  _248
REMARK   98  A    between atoms: _247  and  _250
REMARK   99  A    between atoms: _250  and  _251
REMARK  100  A    between atoms: _251  and  _252
REMARK  101  A    between atoms: _257  and  _259
REMARK  102  A    between atoms: _259  and  _260
REMARK  103  A    between atoms: _263  and  _265
REMARK  104  A    between atoms: _265  and  _266
REMARK  105  A    between atoms: _265  and  _268
REMARK  106  A    between atoms: _268  and  _269
REMARK  107  A    between atoms: _274  and  _275
REMARK  108  A    between atoms: _277  and  _279
REMARK  109  A    between atoms: _279  and  _280
REMARK  110  A    between atoms: _279  and  _282
REMARK  111  A    between atoms: _282  and  _283
REMARK  112  A    between atoms: _286  and  _288
REMARK  113  A    between atoms: _288  and  _289
REMARK  114  A    between atoms: _288  and  _291
REMARK  115  A    between atoms: _291  and  _292
REMARK  116  A    between atoms: _297  and  _298
REMARK  117  A    between atoms: _300  and  _302
REMARK  118  A    between atoms: _302  and  _303
REMARK  119  A    between atoms: _302  and  _305
REMARK  120  A    between atoms: _305  and  _306
REMARK  121  A    between atoms: _306  and  _307
REMARK  122  A    between atoms: _307  and  _308
REMARK  123  A    between atoms: _317  and  _319
REMARK  124  A    between atoms: _319  and  _320
REMARK  125  A    between atoms: _319  and  _322
REMARK  126  A    between atoms: _322  and  _323
REMARK  127  A    between atoms: _323  and  _324
REMARK  128  A    between atoms: _324  and  _325
REMARK  129  A    between atoms: _325  and  _326
REMARK  130  A    between atoms: _330  and  _332
REMARK  131  A    between atoms: _332  and  _333
REMARK  132  A    between atoms: _332  and  _335
REMARK  133  A    between atoms: _335  and  _336
REMARK  134  A    between atoms: _336  and  _337
REMARK  135  A    between atoms: _340  and  _342
REMARK  136  A    between atoms: _342  and  _343
REMARK  137  A    between atoms: _342  and  _345
REMARK  138  A    between atoms: _348  and  _350
REMARK  139  A    between atoms: _350  and  _351
REMARK  140  A    between atoms: _350  and  _353
REMARK  141  A    between atoms: _353  and  _354
REMARK                            x       y       z     vdW  Elec       q    Type
REMARK                         _______ _______ _______ _____ _____    ______ ____
ROOT
ATOM      1  O   HOH     1      -0.873 -10.303   2.648  0.00  0.00    +0.000 OA
ENDROOT
TORSDOF 0
REMARK  Name = ../refined-set-2016/3arr/3arr_pocket.pdb
REMARK  141 active torsions:
REMARK  status: ('A' for Active; 'I' for Inactive)
REMARK    1  A    between atoms: _1  and  _3
REMARK    2  A    between atoms: _3  and  _4
REMARK    3  A    between atoms: _3  and  _6
REMARK    4  A    between atoms: _6  and  _7
REMARK    5  A    between atoms: _17  and  _19
REMARK    6  A    between atoms: _19  and  _20
REMARK    7  A    between atoms: _19  and  _22
REMARK    8  A    between atoms: _22  and  _23
REMARK    9  A    between atoms: _26  and  _28
REMARK   10  A    between atoms: _28  and  _29
REMARK   11  A    between atoms: _28  and  _31
REMARK   12  A    between atoms: _31  and  _32
REMARK   13  A    between atoms: _32  and  _33
REMARK   14  A    between atoms: _36  and  _38
REMARK   15  A    between atoms: _38  and  _39
REMARK   16  A    between atoms: _38  and  _41
REMARK   17  A    between atoms: _41  and  _42
REMARK   18  A    between atoms: _48  and  _50
REMARK   19  A    between atoms: _50  and  _51
REMARK   20  A    between atoms: _53  and  _55
REMARK   21  A    between atoms: _55  and  _56
REMARK   22  A    between atoms: _58  and  _60
REMARK   23  A    between atoms: _60  and  _61
REMARK   24  A    between atoms: _63  and  _65
REMARK   25  A    between atoms: _65  and  _66
REMARK   26  A    between atoms: _69  and  _71
REMARK   27  A    between atoms: _71  and  _72
REMARK   28  A    between atoms: _71  and  _74
REMARK   29  A    between atoms: _74  and  _75
REMARK   30  A    between atoms: _78  and  _80
REMARK   31  A    between atoms: _80  and  _81
REMARK   32  A    between atoms: _83  and  _85
REMARK   33  A    between atoms: _85  and  _86
REMARK   34  A    between atoms: _85  and  _88
REMARK   35  A    between atoms: _91  and  _93
REMARK   36  A    between atoms: _93  and  _94
REMARK   37  A    between atoms: _96  and  _98
REMARK   38  A    between atoms: _98  and  _99
REMARK   39  A    between atoms: _98  and  _101
REMARK   40  A    between atoms: _101  and  _102
REMARK   41  A    between atoms: _107  and  _108
REMARK   42  A    between atoms: _110  and  _112
REMARK   43  A    between atoms: _112  and  _113
REMARK   44  A    between atoms: _112  and  _115
REMARK   45  A    between atoms: _115  and  _116
REMARK   46  A    between atoms: _119  and  _121
REMARK   47  A    between atoms: _121  and  _122
REMARK   48  A    between atoms: _121  and  _124
REMARK   49  A    between atoms: _124  and  _125
REMARK   50  A    between atoms: _125  and  _126
REMARK   51  A    between atoms: _126  and  _127
REMARK   52  A    between atoms: _127  and  _128
REMARK   53  A    between atoms: _132  and  _134
REMARK   54  A    between atoms: _134  and  _135
REMARK   55  A    between atoms: _134  and  _137
REMARK   56  A    between atoms: _137  and  _138
REMARK   57  A    between atoms: _141  and  _143
REMARK   58  A    between atoms: _143  and  _144
REMARK   59  A    between atoms: _143  and  _146
REMARK   60  A    between atoms: _146  and  _147
REMARK   61  A    between atoms: _147  and  _148
REMARK   62  A    between atoms: _150  and  _152
REMARK   63  A    between atoms: _152  and  _153
REMARK   64  A    between atoms: _152  and  _155
REMARK   65  A    between atoms: _155  and  _156
REMARK   66  A    between atoms: _159  and  _161
REMARK   67  A    between atoms: _161  and  _162
REMARK   68  A    between atoms: _161  and  _164
REMARK   69  A    between atoms: _164  and  _165
REMARK   70  A    between atoms: _170  and  _171
REMARK   71  A    between atoms: _173  and  _175
REMARK   72  A    between atoms: _175  and  _176
REMARK   73  A    between atoms: _175  and  _178
REMARK   74  A    between atoms: _178  and  _179
REMARK   75  A    between atoms: _182  and  _184
REMARK   76  A    between atoms: _184  and  _185
REMARK   77  A    between atoms: _184  and  _187
REMARK   78  A    between atoms: _187  and  _188
REMARK   79  A    between atoms: _194  and  _196
REMARK   80  A    between atoms: _196  and  _197
REMARK   81  A    between atoms: _196  and  _199
REMARK   82  A    between atoms: _199  and  _200
REMARK   83  A    between atoms: _205  and  _206
REMARK   84  A    between atoms: _208  and  _210
REMARK   85  A    between atoms: _210  and  _211
REMARK   86  A    between atoms: _213  and  _215
REMARK   87  A    between atoms: _215  and  _216
REMARK   88  A    between atoms: _218  and  _220
REMARK   89  A    between atoms: _220  and  _221
REMARK   90  A    between atoms: _220  and  _223
REMARK   91  A    between atoms: _223  and  _224
REMARK   92  A    between atoms: _234  and  _236
REMARK   93  A    between atoms: _236  and  _237
REMARK   94  A    between atoms: _236  and  _239
REMARK   95  A    between atoms: _239  and  _240
REMARK   96  A    between atoms: _245  and  _247
REMARK   97  A    between atoms: _247  and  _248
REMARK   98  A    between atoms: _247  and  _250
REMARK   99  A    between atoms: _250  and  _251
REMARK  100  A    between atoms: _251  and  _252
REMARK  101  A    between atoms: _257  and  _259
REMARK  102  A    between atoms: _259  and  _260
REMARK  103  A    between atoms: _263  and  _265
REMARK  104  A    between atoms: _265  and  _266
REMARK  105  A    between atoms: _265  and  _268
REMARK  106  A    between atoms: _268  and  _269
REMARK  107  A    between atoms: _274  and  _275
REMARK  108  A    between atoms: _277  and  _279
REMARK  109  A    between atoms: _279  and  _280
REMARK  110  A    between atoms: _279  and  _282
REMARK  111  A    between atoms: _282  and  _283
REMARK  112  A    between atoms: _286  and  _288
REMARK  113  A    between atoms: _288  and  _289
REMARK  114  A    between atoms: _288  and  _291
REMARK  115  A    between atoms: _291  and  _292
REMARK  116  A    between atoms: _297  and  _298
REMARK  117  A    between atoms: _300  and  _302
REMARK  118  A    between atoms: _302  and  _303
REMARK  119  A    between atoms: _302  and  _305
REMARK  120  A    between atoms: _305  and  _306
REMARK  121  A    between atoms: _306  and  _307
REMARK  122  A    between atoms: _307  and  _308
REMARK  123  A    between atoms: _317  and  _319
REMARK  124  A    between atoms: _319  and  _320
REMARK  125  A    between atoms: _319  and  _322
REMARK  126  A    between atoms: _322  and  _323
REMARK  127  A    between atoms: _323  and  _324
REMARK  128  A    between atoms: _324  and  _325
REMARK  129  A    between atoms: _325  and  _326
REMARK  130  A    between atoms: _330  and  _332
REMARK  131  A    between atoms: _332  and  _333
REMARK  132  A    between atoms: _332  and  _335
REMARK  133  A    between atoms: _335  and  _336
REMARK  134  A    between atoms: _336  and  _337
REMARK  135  A    between atoms: _340  and  _342
REMARK  136  A    between atoms: _342  and  _343
REMARK  137  A    between atoms: _342  and  _345
REMARK  138  A    between atoms: _348  and  _350
REMARK  139  A    between atoms: _350  and  _351
REMARK  140  A    between atoms: _350  and  _353
REMARK  141  A    between atoms: _353  and  _354
REMARK                            x       y       z     vdW  Elec       q    Type
REMARK                         _______ _______ _______ _____ _____    ______ ____
ROOT
ATOM      1  O   HOH     1     -10.278 -12.956   8.122  0.00  0.00    +0.000 OA
ENDROOT
TORSDOF 0
REMARK  Name = ../refined-set-2016/3arr/3arr_pocket.pdb
REMARK  141 active torsions:
REMARK  status: ('A' for Active; 'I' for Inactive)
REMARK    1  A    between atoms: _1  and  _3
REMARK    2  A    between atoms: _3  and  _4
REMARK    3  A    between atoms: _3  and  _6
REMARK    4  A    between atoms: _6  and  _7
REMARK    5  A    between atoms: _17  and  _19
REMARK    6  A    between atoms: _19  and  _20
REMARK    7  A    between atoms: _19  and  _22
REMARK    8  A    between atoms: _22  and  _23
REMARK    9  A    between atoms: _26  and  _28
REMARK   10  A    between atoms: _28  and  _29
REMARK   11  A    between atoms: _28  and  _31
REMARK   12  A    between atoms: _31  and  _32
REMARK   13  A    between atoms: _32  and  _33
REMARK   14  A    between atoms: _36  and  _38
REMARK   15  A    between atoms: _38  and  _39
REMARK   16  A    between atoms: _38  and  _41
REMARK   17  A    between atoms: _41  and  _42
REMARK   18  A    between atoms: _48  and  _50
REMARK   19  A    between atoms: _50  and  _51
REMARK   20  A    between atoms: _53  and  _55
REMARK   21  A    between atoms: _55  and  _56
REMARK   22  A    between atoms: _58  and  _60
REMARK   23  A    between atoms: _60  and  _61
REMARK   24  A    between atoms: _63  and  _65
REMARK   25  A    between atoms: _65  and  _66
REMARK   26  A    between atoms: _69  and  _71
REMARK   27  A    between atoms: _71  and  _72
REMARK   28  A    between atoms: _71  and  _74
REMARK   29  A    between atoms: _74  and  _75
REMARK   30  A    between atoms: _78  and  _80
REMARK   31  A    between atoms: _80  and  _81
REMARK   32  A    between atoms: _83  and  _85
REMARK   33  A    between atoms: _85  and  _86
REMARK   34  A    between atoms: _85  and  _88
REMARK   35  A    between atoms: _91  and  _93
REMARK   36  A    between atoms: _93  and  _94
REMARK   37  A    between atoms: _96  and  _98
REMARK   38  A    between atoms: _98  and  _99
REMARK   39  A    between atoms: _98  and  _101
REMARK   40  A    between atoms: _101  and  _102
REMARK   41  A    between atoms: _107  and  _108
REMARK   42  A    between atoms: _110  and  _112
REMARK   43  A    between atoms: _112  and  _113
REMARK   44  A    between atoms: _112  and  _115
REMARK   45  A    between atoms: _115  and  _116
REMARK   46  A    between atoms: _119  and  _121
REMARK   47  A    between atoms: _121  and  _122
REMARK   48  A    between atoms: _121  and  _124
REMARK   49  A    between atoms: _124  and  _125
REMARK   50  A    between atoms: _125  and  _126
REMARK   51  A    between atoms: _126  and  _127
REMARK   52  A    between atoms: _127  and  _128
REMARK   53  A    between atoms: _132  and  _134
REMARK   54  A    between atoms: _134  and  _135
REMARK   55  A    between atoms: _134  and  _137
REMARK   56  A    between atoms: _137  and  _138
REMARK   57  A    between atoms: _141  and  _143
REMARK   58  A    between atoms: _143  and  _144
REMARK   59  A    between atoms: _143  and  _146
REMARK   60  A    between atoms: _146  and  _147
REMARK   61  A    between atoms: _147  and  _148
REMARK   62  A    between atoms: _150  and  _152
REMARK   63  A    between atoms: _152  and  _153
REMARK   64  A    between atoms: _152  and  _155
REMARK   65  A    between atoms: _155  and  _156
REMARK   66  A    between atoms: _159  and  _161
REMARK   67  A    between atoms: _161  and  _162
REMARK   68  A    between atoms: _161  and  _164
REMARK   69  A    between atoms: _164  and  _165
REMARK   70  A    between atoms: _170  and  _171
REMARK   71  A    between atoms: _173  and  _175
REMARK   72  A    between atoms: _175  and  _176
REMARK   73  A    between atoms: _175  and  _178
REMARK   74  A    between atoms: _178  and  _179
REMARK   75  A    between atoms: _182  and  _184
REMARK   76  A    between atoms: _184  and  _185
REMARK   77  A    between atoms: _184  and  _187
REMARK   78  A    between atoms: _187  and  _188
REMARK   79  A    between atoms: _194  and  _196
REMARK   80  A    between atoms: _196  and  _197
REMARK   81  A    between atoms: _196  and  _199
REMARK   82  A    between atoms: _199  and  _200
REMARK   83  A    between atoms: _205  and  _206
REMARK   84  A    between atoms: _208  and  _210
REMARK   85  A    between atoms: _210  and  _211
REMARK   86  A    between atoms: _213  and  _215
REMARK   87  A    between atoms: _215  and  _216
REMARK   88  A    between atoms: _218  and  _220
REMARK   89  A    between atoms: _220  and  _221
REMARK   90  A    between atoms: _220  and  _223
REMARK   91  A    between atoms: _223  and  _224
REMARK   92  A    between atoms: _234  and  _236
REMARK   93  A    between atoms: _236  and  _237
REMARK   94  A    between atoms: _236  and  _239
REMARK   95  A    between atoms: _239  and  _240
REMARK   96  A    between atoms: _245  and  _247
REMARK   97  A    between atoms: _247  and  _248
REMARK   98  A    between atoms: _247  and  _250
REMARK   99  A    between atoms: _250  and  _251
REMARK  100  A    between atoms: _251  and  _252
REMARK  101  A    between atoms: _257  and  _259
REMARK  102  A    between atoms: _259  and  _260
REMARK  103  A    between atoms: _263  and  _265
REMARK  104  A    between atoms: _265  and  _266
REMARK  105  A    between atoms: _265  and  _268
REMARK  106  A    between atoms: _268  and  _269
REMARK  107  A    between atoms: _274  and  _275
REMARK  108  A    between atoms: _277  and  _279
REMARK  109  A    between atoms: _279  and  _280
REMARK  110  A    between atoms: _279  and  _282
REMARK  111  A    between atoms: _282  and  _283
REMARK  112  A    between atoms: _286  and  _288
REMARK  113  A    between atoms: _288  and  _289
REMARK  114  A    between atoms: _288  and  _291
REMARK  115  A    between atoms: _291  and  _292
REMARK  116  A    between atoms: _297  and  _298
REMARK  117  A    between atoms: _300  and  _302
REMARK  118  A    between atoms: _302  and  _303
REMARK  119  A    between atoms: _302  and  _305
REMARK  120  A    between atoms: _305  and  _306
REMARK  121  A    between atoms: _306  and  _307
REMARK  122  A    between atoms: _307  and  _308
REMARK  123  A    between atoms: _317  and  _319
REMARK  124  A    between atoms: _319  and  _320
REMARK  125  A    between atoms: _319  and  _322
REMARK  126  A    between atoms: _322  and  _323
REMARK  127  A    between atoms: _323  and  _324
REMARK  128  A    between atoms: _324  and  _325
REMARK  129  A    between atoms: _325  and  _326
REMARK  130  A    between atoms: _330  and  _332
REMARK  131  A    between atoms: _332  and  _333
REMARK  132  A    between atoms: _332  and  _335
REMARK  133  A    between atoms: _335  and  _336
REMARK  134  A    between atoms: _336  and  _337
REMARK  135  A    between atoms: _340  and  _342
REMARK  136  A    between atoms: _342  and  _343
REMARK  137  A    between atoms: _342  and  _345
REMARK  138  A    between atoms: _348  and  _350
REMARK  139  A    between atoms: _350  and  _351
REMARK  140  A    between atoms: _350  and  _353
REMARK  141  A    between atoms: _353  and  _354
REMARK                            x       y       z     vdW  Elec       q    Type
REMARK                         _______ _______ _______ _____ _____    ______ ____
ROOT
ATOM      1  O   HOH     1      -8.102  -8.707   4.681  0.00  0.00    +0.000 OA
ENDROOT
TORSDOF 0
REMARK  Name = ../refined-set-2016/3arr/3arr_pocket.pdb
REMARK  141 active torsions:
REMARK  status: ('A' for Active; 'I' for Inactive)
REMARK    1  A    between atoms: _1  and  _3
REMARK    2  A    between atoms: _3  and  _4
REMARK    3  A    between atoms: _3  and  _6
REMARK    4  A    between atoms: _6  and  _7
REMARK    5  A    between atoms: _17  and  _19
REMARK    6  A    between atoms: _19  and  _20
REMARK    7  A    between atoms: _19  and  _22
REMARK    8  A    between atoms: _22  and  _23
REMARK    9  A    between atoms: _26  and  _28
REMARK   10  A    between atoms: _28  and  _29
REMARK   11  A    between atoms: _28  and  _31
REMARK   12  A    between atoms: _31  and  _32
REMARK   13  A    between atoms: _32  and  _33
REMARK   14  A    between atoms: _36  and  _38
REMARK   15  A    between atoms: _38  and  _39
REMARK   16  A    between atoms: _38  and  _41
REMARK   17  A    between atoms: _41  and  _42
REMARK   18  A    between atoms: _48  and  _50
REMARK   19  A    between atoms: _50  and  _51
REMARK   20  A    between atoms: _53  and  _55
REMARK   21  A    between atoms: _55  and  _56
REMARK   22  A    between atoms: _58  and  _60
REMARK   23  A    between atoms: _60  and  _61
REMARK   24  A    between atoms: _63  and  _65
REMARK   25  A    between atoms: _65  and  _66
REMARK   26  A    between atoms: _69  and  _71
REMARK   27  A    between atoms: _71  and  _72
REMARK   28  A    between atoms: _71  and  _74
REMARK   29  A    between atoms: _74  and  _75
REMARK   30  A    between atoms: _78  and  _80
REMARK   31  A    between atoms: _80  and  _81
REMARK   32  A    between atoms: _83  and  _85
REMARK   33  A    between atoms: _85  and  _86
REMARK   34  A    between atoms: _85  and  _88
REMARK   35  A    between atoms: _91  and  _93
REMARK   36  A    between atoms: _93  and  _94
REMARK   37  A    between atoms: _96  and  _98
REMARK   38  A    between atoms: _98  and  _99
REMARK   39  A    between atoms: _98  and  _101
REMARK   40  A    between atoms: _101  and  _102
REMARK   41  A    between atoms: _107  and  _108
REMARK   42  A    between atoms: _110  and  _112
REMARK   43  A    between atoms: _112  and  _113
REMARK   44  A    between atoms: _112  and  _115
REMARK   45  A    between atoms: _115  and  _116
REMARK   46  A    between atoms: _119  and  _121
REMARK   47  A    between atoms: _121  and  _122
REMARK   48  A    between atoms: _121  and  _124
REMARK   49  A    between atoms: _124  and  _125
REMARK   50  A    between atoms: _125  and  _126
REMARK   51  A    between atoms: _126  and  _127
REMARK   52  A    between atoms: _127  and  _128
REMARK   53  A    between atoms: _132  and  _134
REMARK   54  A    between atoms: _134  and  _135
REMARK   55  A    between atoms: _134  and  _137
REMARK   56  A    between atoms: _137  and  _138
REMARK   57  A    between atoms: _141  and  _143
REMARK   58  A    between atoms: _143  and  _144
REMARK   59  A    between atoms: _143  and  _146
REMARK   60  A    between atoms: _146  and  _147
REMARK   61  A    between atoms: _147  and  _148
REMARK   62  A    between atoms: _150  and  _152
REMARK   63  A    between atoms: _152  and  _153
REMARK   64  A    between atoms: _152  and  _155
REMARK   65  A    between atoms: _155  and  _156
REMARK   66  A    between atoms: _159  and  _161
REMARK   67  A    between atoms: _161  and  _162
REMARK   68  A    between atoms: _161  and  _164
REMARK   69  A    between atoms: _164  and  _165
REMARK   70  A    between atoms: _170  and  _171
REMARK   71  A    between atoms: _173  and  _175
REMARK   72  A    between atoms: _175  and  _176
REMARK   73  A    between atoms: _175  and  _178
REMARK   74  A    between atoms: _178  and  _179
REMARK   75  A    between atoms: _182  and  _184
REMARK   76  A    between atoms: _184  and  _185
REMARK   77  A    between atoms: _184  and  _187
REMARK   78  A    between atoms: _187  and  _188
REMARK   79  A    between atoms: _194  and  _196
REMARK   80  A    between atoms: _196  and  _197
REMARK   81  A    between atoms: _196  and  _199
REMARK   82  A    between atoms: _199  and  _200
REMARK   83  A    between atoms: _205  and  _206
REMARK   84  A    between atoms: _208  and  _210
REMARK   85  A    between atoms: _210  and  _211
REMARK   86  A    between atoms: _213  and  _215
REMARK   87  A    between atoms: _215  and  _216
REMARK   88  A    between atoms: _218  and  _220
REMARK   89  A    between atoms: _220  and  _221
REMARK   90  A    between atoms: _220  and  _223
REMARK   91  A    between atoms: _223  and  _224
REMARK   92  A    between atoms: _234  and  _236
REMARK   93  A    between atoms: _236  and  _237
REMARK   94  A    between atoms: _236  and  _239
REMARK   95  A    between atoms: _239  and  _240
REMARK   96  A    between atoms: _245  and  _247
REMARK   97  A    between atoms: _247  and  _248
REMARK   98  A    between atoms: _247  and  _250
REMARK   99  A    between atoms: _250  and  _251
REMARK  100  A    between atoms: _251  and  _252
REMARK  101  A    between atoms: _257  and  _259
REMARK  102  A    between atoms: _259  and  _260
REMARK  103  A    between atoms: _263  and  _265
REMARK  104  A    between atoms: _265  and  _266
REMARK  105  A    between atoms: _265  and  _268
REMARK  106  A    between atoms: _268  and  _269
REMARK  107  A    between atoms: _274  and  _275
REMARK  108  A    between atoms: _277  and  _279
REMARK  109  A    between atoms: _279  and  _280
REMARK  110  A    between atoms: _279  and  _282
REMARK  111  A    between atoms: _282  and  _283
REMARK  112  A    between atoms: _286  and  _288
REMARK  113  A    between atoms: _288  and  _289
REMARK  114  A    between atoms: _288  and  _291
REMARK  115  A    between atoms: _291  and  _292
REMARK  116  A    between atoms: _297  and  _298
REMARK  117  A    between atoms: _300  and  _302
REMARK  118  A    between atoms: _302  and  _303
REMARK  119  A    between atoms: _302  and  _305
REMARK  120  A    between atoms: _305  and  _306
REMARK  121  A    between atoms: _306  and  _307
REMARK  122  A    between atoms: _307  and  _308
REMARK  123  A    between atoms: _317  and  _319
REMARK  124  A    between atoms: _319  and  _320
REMARK  125  A    between atoms: _319  and  _322
REMARK  126  A    between atoms: _322  and  _323
REMARK  127  A    between atoms: _323  and  _324
REMARK  128  A    between atoms: _324  and  _325
REMARK  129  A    between atoms: _325  and  _326
REMARK  130  A    between atoms: _330  and  _332
REMARK  131  A    between atoms: _332  and  _333
REMARK  132  A    between atoms: _332  and  _335
REMARK  133  A    between atoms: _335  and  _336
REMARK  134  A    between atoms: _336  and  _337
REMARK  135  A    between atoms: _340  and  _342
REMARK  136  A    between atoms: _342  and  _343
REMARK  137  A    between atoms: _342  and  _345
REMARK  138  A    between atoms: _348  and  _350
REMARK  139  A    between atoms: _350  and  _351
REMARK  140  A    between atoms: _350  and  _353
REMARK  141  A    between atoms: _353  and  _354
REMARK                            x       y       z     vdW  Elec       q    Type
REMARK                         _______ _______ _______ _____ _____    ______ ____
ROOT
ATOM      1  O   HOH     1      -8.025  -8.415  -2.346  0.00  0.00    +0.000 OA
ENDROOT
TORSDOF 0
REMARK  Name = ../refined-set-2016/3arr/3arr_pocket.pdb
REMARK  141 active torsions:
REMARK  status: ('A' for Active; 'I' for Inactive)
REMARK    1  A    between atoms: _1  and  _3
REMARK    2  A    between atoms: _3  and  _4
REMARK    3  A    between atoms: _3  and  _6
REMARK    4  A    between atoms: _6  and  _7
REMARK    5  A    between atoms: _17  and  _19
REMARK    6  A    between atoms: _19  and  _20
REMARK    7  A    between atoms: _19  and  _22
REMARK    8  A    between atoms: _22  and  _23
REMARK    9  A    between atoms: _26  and  _28
REMARK   10  A    between atoms: _28  and  _29
REMARK   11  A    between atoms: _28  and  _31
REMARK   12  A    between atoms: _31  and  _32
REMARK   13  A    between atoms: _32  and  _33
REMARK   14  A    between atoms: _36  and  _38
REMARK   15  A    between atoms: _38  and  _39
REMARK   16  A    between atoms: _38  and  _41
REMARK   17  A    between atoms: _41  and  _42
REMARK   18  A    between atoms: _48  and  _50
REMARK   19  A    between atoms: _50  and  _51
REMARK   20  A    between atoms: _53  and  _55
REMARK   21  A    between atoms: _55  and  _56
REMARK   22  A    between atoms: _58  and  _60
REMARK   23  A    between atoms: _60  and  _61
REMARK   24  A    between atoms: _63  and  _65
REMARK   25  A    between atoms: _65  and  _66
REMARK   26  A    between atoms: _69  and  _71
REMARK   27  A    between atoms: _71  and  _72
REMARK   28  A    between atoms: _71  and  _74
REMARK   29  A    between atoms: _74  and  _75
REMARK   30  A    between atoms: _78  and  _80
REMARK   31  A    between atoms: _80  and  _81
REMARK   32  A    between atoms: _83  and  _85
REMARK   33  A    between atoms: _85  and  _86
REMARK   34  A    between atoms: _85  and  _88
REMARK   35  A    between atoms: _91  and  _93
REMARK   36  A    between atoms: _93  and  _94
REMARK   37  A    between atoms: _96  and  _98
REMARK   38  A    between atoms: _98  and  _99
REMARK   39  A    between atoms: _98  and  _101
REMARK   40  A    between atoms: _101  and  _102
REMARK   41  A    between atoms: _107  and  _108
REMARK   42  A    between atoms: _110  and  _112
REMARK   43  A    between atoms: _112  and  _113
REMARK   44  A    between atoms: _112  and  _115
REMARK   45  A    between atoms: _115  and  _116
REMARK   46  A    between atoms: _119  and  _121
REMARK   47  A    between atoms: _121  and  _122
REMARK   48  A    between atoms: _121  and  _124
REMARK   49  A    between atoms: _124  and  _125
REMARK   50  A    between atoms: _125  and  _126
REMARK   51  A    between atoms: _126  and  _127
REMARK   52  A    between atoms: _127  and  _128
REMARK   53  A    between atoms: _132  and  _134
REMARK   54  A    between atoms: _134  and  _135
REMARK   55  A    between atoms: _134  and  _137
REMARK   56  A    between atoms: _137  and  _138
REMARK   57  A    between atoms: _141  and  _143
REMARK   58  A    between atoms: _143  and  _144
REMARK   59  A    between atoms: _143  and  _146
REMARK   60  A    between atoms: _146  and  _147
REMARK   61  A    between atoms: _147  and  _148
REMARK   62  A    between atoms: _150  and  _152
REMARK   63  A    between atoms: _152  and  _153
REMARK   64  A    between atoms: _152  and  _155
REMARK   65  A    between atoms: _155  and  _156
REMARK   66  A    between atoms: _159  and  _161
REMARK   67  A    between atoms: _161  and  _162
REMARK   68  A    between atoms: _161  and  _164
REMARK   69  A    between atoms: _164  and  _165
REMARK   70  A    between atoms: _170  and  _171
REMARK   71  A    between atoms: _173  and  _175
REMARK   72  A    between atoms: _175  and  _176
REMARK   73  A    between atoms: _175  and  _178
REMARK   74  A    between atoms: _178  and  _179
REMARK   75  A    between atoms: _182  and  _184
REMARK   76  A    between atoms: _184  and  _185
REMARK   77  A    between atoms: _184  and  _187
REMARK   78  A    between atoms: _187  and  _188
REMARK   79  A    between atoms: _194  and  _196
REMARK   80  A    between atoms: _196  and  _197
REMARK   81  A    between atoms: _196  and  _199
REMARK   82  A    between atoms: _199  and  _200
REMARK   83  A    between atoms: _205  and  _206
REMARK   84  A    between atoms: _208  and  _210
REMARK   85  A    between atoms: _210  and  _211
REMARK   86  A    between atoms: _213  and  _215
REMARK   87  A    between atoms: _215  and  _216
REMARK   88  A    between atoms: _218  and  _220
REMARK   89  A    between atoms: _220  and  _221
REMARK   90  A    between atoms: _220  and  _223
REMARK   91  A    between atoms: _223  and  _224
REMARK   92  A    between atoms: _234  and  _236
REMARK   93  A    between atoms: _236  and  _237
REMARK   94  A    between atoms: _236  and  _239
REMARK   95  A    between atoms: _239  and  _240
REMARK   96  A    between atoms: _245  and  _247
REMARK   97  A    between atoms: _247  and  _248
REMARK   98  A    between atoms: _247  and  _250
REMARK   99  A    between atoms: _250  and  _251
REMARK  100  A    between atoms: _251  and  _252
REMARK  101  A    between atoms: _257  and  _259
REMARK  102  A    between atoms: _259  and  _260
REMARK  103  A    between atoms: _263  and  _265
REMARK  104  A    between atoms: _265  and  _266
REMARK  105  A    between atoms: _265  and  _268
REMARK  106  A    between atoms: _268  and  _269
REMARK  107  A    between atoms: _274  and  _275
REMARK  108  A    between atoms: _277  and  _279
REMARK  109  A    between atoms: _279  and  _280
REMARK  110  A    between atoms: _279  and  _282
REMARK  111  A    between atoms: _282  and  _283
REMARK  112  A    between atoms: _286  and  _288
REMARK  113  A    between atoms: _288  and  _289
REMARK  114  A    between atoms: _288  and  _291
REMARK  115  A    between atoms: _291  and  _292
REMARK  116  A    between atoms: _297  and  _298
REMARK  117  A    between atoms: _300  and  _302
REMARK  118  A    between atoms: _302  and  _303
REMARK  119  A    between atoms: _302  and  _305
REMARK  120  A    between atoms: _305  and  _306
REMARK  121  A    between atoms: _306  and  _307
REMARK  122  A    between atoms: _307  and  _308
REMARK  123  A    between atoms: _317  and  _319
REMARK  124  A    between atoms: _319  and  _320
REMARK  125  A    between atoms: _319  and  _322
REMARK  126  A    between atoms: _322  and  _323
REMARK  127  A    between atoms: _323  and  _324
REMARK  128  A    between atoms: _324  and  _325
REMARK  129  A    between atoms: _325  and  _326
REMARK  130  A    between atoms: _330  and  _332
REMARK  131  A    between atoms: _332  and  _333
REMARK  132  A    between atoms: _332  and  _335
REMARK  133  A    between atoms: _335  and  _336
REMARK  134  A    between atoms: _336  and  _337
REMARK  135  A    between atoms: _340  and  _342
REMARK  136  A    between atoms: _342  and  _343
REMARK  137  A    between atoms: _342  and  _345
REMARK  138  A    between atoms: _348  and  _350
REMARK  139  A    between atoms: _350  and  _351
REMARK  140  A    between atoms: _350  and  _353
REMARK  141  A    between atoms: _353  and  _354
REMARK                            x       y       z     vdW  Elec       q    Type
REMARK                         _______ _______ _______ _____ _____    ______ ____
ROOT
ATOM      1  O   HOH     1     -12.043 -11.641   6.628  0.00  0.00    +0.000 OA
ENDROOT
TORSDOF 0
REMARK  Name = ../refined-set-2016/3arr/3arr_pocket.pdb
REMARK  141 active torsions:
REMARK  status: ('A' for Active; 'I' for Inactive)
REMARK    1  A    between atoms: _1  and  _3
REMARK    2  A    between atoms: _3  and  _4
REMARK    3  A    between atoms: _3  and  _6
REMARK    4  A    between atoms: _6  and  _7
REMARK    5  A    between atoms: _17  and  _19
REMARK    6  A    between atoms: _19  and  _20
REMARK    7  A    between atoms: _19  and  _22
REMARK    8  A    between atoms: _22  and  _23
REMARK    9  A    between atoms: _26  and  _28
REMARK   10  A    between atoms: _28  and  _29
REMARK   11  A    between atoms: _28  and  _31
REMARK   12  A    between atoms: _31  and  _32
REMARK   13  A    between atoms: _32  and  _33
REMARK   14  A    between atoms: _36  and  _38
REMARK   15  A    between atoms: _38  and  _39
REMARK   16  A    between atoms: _38  and  _41
REMARK   17  A    between atoms: _41  and  _42
REMARK   18  A    between atoms: _48  and  _50
REMARK   19  A    between atoms: _50  and  _51
REMARK   20  A    between atoms: _53  and  _55
REMARK   21  A    between atoms: _55  and  _56
REMARK   22  A    between atoms: _58  and  _60
REMARK   23  A    between atoms: _60  and  _61
REMARK   24  A    between atoms: _63  and  _65
REMARK   25  A    between atoms: _65  and  _66
REMARK   26  A    between atoms: _69  and  _71
REMARK   27  A    between atoms: _71  and  _72
REMARK   28  A    between atoms: _71  and  _74
REMARK   29  A    between atoms: _74  and  _75
REMARK   30  A    between atoms: _78  and  _80
REMARK   31  A    between atoms: _80  and  _81
REMARK   32  A    between atoms: _83  and  _85
REMARK   33  A    between atoms: _85  and  _86
REMARK   34  A    between atoms: _85  and  _88
REMARK   35  A    between atoms: _91  and  _93
REMARK   36  A    between atoms: _93  and  _94
REMARK   37  A    between atoms: _96  and  _98
REMARK   38  A    between atoms: _98  and  _99
REMARK   39  A    between atoms: _98  and  _101
REMARK   40  A    between atoms: _101  and  _102
REMARK   41  A    between atoms: _107  and  _108
REMARK   42  A    between atoms: _110  and  _112
REMARK   43  A    between atoms: _112  and  _113
REMARK   44  A    between atoms: _112  and  _115
REMARK   45  A    between atoms: _115  and  _116
REMARK   46  A    between atoms: _119  and  _121
REMARK   47  A    between atoms: _121  and  _122
REMARK   48  A    between atoms: _121  and  _124
REMARK   49  A    between atoms: _124  and  _125
REMARK   50  A    between atoms: _125  and  _126
REMARK   51  A    between atoms: _126  and  _127
REMARK   52  A    between atoms: _127  and  _128
REMARK   53  A    between atoms: _132  and  _134
REMARK   54  A    between atoms: _134  and  _135
REMARK   55  A    between atoms: _134  and  _137
REMARK   56  A    between atoms: _137  and  _138
REMARK   57  A    between atoms: _141  and  _143
REMARK   58  A    between atoms: _143  and  _144
REMARK   59  A    between atoms: _143  and  _146
REMARK   60  A    between atoms: _146  and  _147
REMARK   61  A    between atoms: _147  and  _148
REMARK   62  A    between atoms: _150  and  _152
REMARK   63  A    between atoms: _152  and  _153
REMARK   64  A    between atoms: _152  and  _155
REMARK   65  A    between atoms: _155  and  _156
REMARK   66  A    between atoms: _159  and  _161
REMARK   67  A    between atoms: _161  and  _162
REMARK   68  A    between atoms: _161  and  _164
REMARK   69  A    between atoms: _164  and  _165
REMARK   70  A    between atoms: _170  and  _171
REMARK   71  A    between atoms: _173  and  _175
REMARK   72  A    between atoms: _175  and  _176
REMARK   73  A    between atoms: _175  and  _178
REMARK   74  A    between atoms: _178  and  _179
REMARK   75  A    between atoms: _182  and  _184
REMARK   76  A    between atoms: _184  and  _185
REMARK   77  A    between atoms: _184  and  _187
REMARK   78  A    between atoms: _187  and  _188
REMARK   79  A    between atoms: _194  and  _196
REMARK   80  A    between atoms: _196  and  _197
REMARK   81  A    between atoms: _196  and  _199
REMARK   82  A    between atoms: _199  and  _200
REMARK   83  A    between atoms: _205  and  _206
REMARK   84  A    between atoms: _208  and  _210
REMARK   85  A    between atoms: _210  and  _211
REMARK   86  A    between atoms: _213  and  _215
REMARK   87  A    between atoms: _215  and  _216
REMARK   88  A    between atoms: _218  and  _220
REMARK   89  A    between atoms: _220  and  _221
REMARK   90  A    between atoms: _220  and  _223
REMARK   91  A    between atoms: _223  and  _224
REMARK   92  A    between atoms: _234  and  _236
REMARK   93  A    between atoms: _236  and  _237
REMARK   94  A    between atoms: _236  and  _239
REMARK   95  A    between atoms: _239  and  _240
REMARK   96  A    between atoms: _245  and  _247
REMARK   97  A    between atoms: _247  and  _248
REMARK   98  A    between atoms: _247  and  _250
REMARK   99  A    between atoms: _250  and  _251
REMARK  100  A    between atoms: _251  and  _252
REMARK  101  A    between atoms: _257  and  _259
REMARK  102  A    between atoms: _259  and  _260
REMARK  103  A    between atoms: _263  and  _265
REMARK  104  A    between atoms: _265  and  _266
REMARK  105  A    between atoms: _265  and  _268
REMARK  106  A    between atoms: _268  and  _269
REMARK  107  A    between atoms: _274  and  _275
REMARK  108  A    between atoms: _277  and  _279
REMARK  109  A    between atoms: _279  and  _280
REMARK  110  A    between atoms: _279  and  _282
REMARK  111  A    between atoms: _282  and  _283
REMARK  112  A    between atoms: _286  and  _288
REMARK  113  A    between atoms: _288  and  _289
REMARK  114  A    between atoms: _288  and  _291
REMARK  115  A    between atoms: _291  and  _292
REMARK  116  A    between atoms: _297  and  _298
REMARK  117  A    between atoms: _300  and  _302
REMARK  118  A    between atoms: _302  and  _303
REMARK  119  A    between atoms: _302  and  _305
REMARK  120  A    between atoms: _305  and  _306
REMARK  121  A    between atoms: _306  and  _307
REMARK  122  A    between atoms: _307  and  _308
REMARK  123  A    between atoms: _317  and  _319
REMARK  124  A    between atoms: _319  and  _320
REMARK  125  A    between atoms: _319  and  _322
REMARK  126  A    between atoms: _322  and  _323
REMARK  127  A    between atoms: _323  and  _324
REMARK  128  A    between atoms: _324  and  _325
REMARK  129  A    between atoms: _325  and  _326
REMARK  130  A    between atoms: _330  and  _332
REMARK  131  A    between atoms: _332  and  _333
REMARK  132  A    between atoms: _332  and  _335
REMARK  133  A    between atoms: _335  and  _336
REMARK  134  A    between atoms: _336  and  _337
REMARK  135  A    between atoms: _340  and  _342
REMARK  136  A    between atoms: _342  and  _343
REMARK  137  A    between atoms: _342  and  _345
REMARK  138  A    between atoms: _348  and  _350
REMARK  139  A    between atoms: _350  and  _351
REMARK  140  A    between atoms: _350  and  _353
REMARK  141  A    between atoms: _353  and  _354
REMARK                            x       y       z     vdW  Elec       q    Type
REMARK                         _______ _______ _______ _____ _____    ______ ____
ROOT
ATOM      1  O   HOH     1      -9.733  -5.466   8.583  0.00  0.00    +0.000 OA
ENDROOT
TORSDOF 0
REMARK  Name = ../refined-set-2016/3arr/3arr_pocket.pdb
REMARK  141 active torsions:
REMARK  status: ('A' for Active; 'I' for Inactive)
REMARK    1  A    between atoms: _1  and  _3
REMARK    2  A    between atoms: _3  and  _4
REMARK    3  A    between atoms: _3  and  _6
REMARK    4  A    between atoms: _6  and  _7
REMARK    5  A    between atoms: _17  and  _19
REMARK    6  A    between atoms: _19  and  _20
REMARK    7  A    between atoms: _19  and  _22
REMARK    8  A    between atoms: _22  and  _23
REMARK    9  A    between atoms: _26  and  _28
REMARK   10  A    between atoms: _28  and  _29
REMARK   11  A    between atoms: _28  and  _31
REMARK   12  A    between atoms: _31  and  _32
REMARK   13  A    between atoms: _32  and  _33
REMARK   14  A    between atoms: _36  and  _38
REMARK   15  A    between atoms: _38  and  _39
REMARK   16  A    between atoms: _38  and  _41
REMARK   17  A    between atoms: _41  and  _42
REMARK   18  A    between atoms: _48  and  _50
REMARK   19  A    between atoms: _50  and  _51
REMARK   20  A    between atoms: _53  and  _55
REMARK   21  A    between atoms: _55  and  _56
REMARK   22  A    between atoms: _58  and  _60
REMARK   23  A    between atoms: _60  and  _61
REMARK   24  A    between atoms: _63  and  _65
REMARK   25  A    between atoms: _65  and  _66
REMARK   26  A    between atoms: _69  and  _71
REMARK   27  A    between atoms: _71  and  _72
REMARK   28  A    between atoms: _71  and  _74
REMARK   29  A    between atoms: _74  and  _75
REMARK   30  A    between atoms: _78  and  _80
REMARK   31  A    between atoms: _80  and  _81
REMARK   32  A    between atoms: _83  and  _85
REMARK   33  A    between atoms: _85  and  _86
REMARK   34  A    between atoms: _85  and  _88
REMARK   35  A    between atoms: _91  and  _93
REMARK   36  A    between atoms: _93  and  _94
REMARK   37  A    between atoms: _96  and  _98
REMARK   38  A    between atoms: _98  and  _99
REMARK   39  A    between atoms: _98  and  _101
REMARK   40  A    between atoms: _101  and  _102
REMARK   41  A    between atoms: _107  and  _108
REMARK   42  A    between atoms: _110  and  _112
REMARK   43  A    between atoms: _112  and  _113
REMARK   44  A    between atoms: _112  and  _115
REMARK   45  A    between atoms: _115  and  _116
REMARK   46  A    between atoms: _119  and  _121
REMARK   47  A    between atoms: _121  and  _122
REMARK   48  A    between atoms: _121  and  _124
REMARK   49  A    between atoms: _124  and  _125
REMARK   50  A    between atoms: _125  and  _126
REMARK   51  A    between atoms: _126  and  _127
REMARK   52  A    between atoms: _127  and  _128
REMARK   53  A    between atoms: _132  and  _134
REMARK   54  A    between atoms: _134  and  _135
REMARK   55  A    between atoms: _134  and  _137
REMARK   56  A    between atoms: _137  and  _138
REMARK   57  A    between atoms: _141  and  _143
REMARK   58  A    between atoms: _143  and  _144
REMARK   59  A    between atoms: _143  and  _146
REMARK   60  A    between atoms: _146  and  _147
REMARK   61  A    between atoms: _147  and  _148
REMARK   62  A    between atoms: _150  and  _152
REMARK   63  A    between atoms: _152  and  _153
REMARK   64  A    between atoms: _152  and  _155
REMARK   65  A    between atoms: _155  and  _156
REMARK   66  A    between atoms: _159  and  _161
REMARK   67  A    between atoms: _161  and  _162
REMARK   68  A    between atoms: _161  and  _164
REMARK   69  A    between atoms: _164  and  _165
REMARK   70  A    between atoms: _170  and  _171
REMARK   71  A    between atoms: _173  and  _175
REMARK   72  A    between atoms: _175  and  _176
REMARK   73  A    between atoms: _175  and  _178
REMARK   74  A    between atoms: _178  and  _179
REMARK   75  A    between atoms: _182  and  _184
REMARK   76  A    between atoms: _184  and  _185
REMARK   77  A    between atoms: _184  and  _187
REMARK   78  A    between atoms: _187  and  _188
REMARK   79  A    between atoms: _194  and  _196
REMARK   80  A    between atoms: _196  and  _197
REMARK   81  A    between atoms: _196  and  _199
REMARK   82  A    between atoms: _199  and  _200
REMARK   83  A    between atoms: _205  and  _206
REMARK   84  A    between atoms: _208  and  _210
REMARK   85  A    between atoms: _210  and  _211
REMARK   86  A    between atoms: _213  and  _215
REMARK   87  A    between atoms: _215  and  _216
REMARK   88  A    between atoms: _218  and  _220
REMARK   89  A    between atoms: _220  and  _221
REMARK   90  A    between atoms: _220  and  _223
REMARK   91  A    between atoms: _223  and  _224
REMARK   92  A    between atoms: _234  and  _236
REMARK   93  A    between atoms: _236  and  _237
REMARK   94  A    between atoms: _236  and  _239
REMARK   95  A    between atoms: _239  and  _240
REMARK   96  A    between atoms: _245  and  _247
REMARK   97  A    between atoms: _247  and  _248
REMARK   98  A    between atoms: _247  and  _250
REMARK   99  A    between atoms: _250  and  _251
REMARK  100  A    between atoms: _251  and  _252
REMARK  101  A    between atoms: _257  and  _259
REMARK  102  A    between atoms: _259  and  _260
REMARK  103  A    between atoms: _263  and  _265
REMARK  104  A    between atoms: _265  and  _266
REMARK  105  A    between atoms: _265  and  _268
REMARK  106  A    between atoms: _268  and  _269
REMARK  107  A    between atoms: _274  and  _275
REMARK  108  A    between atoms: _277  and  _279
REMARK  109  A    between atoms: _279  and  _280
REMARK  110  A    between atoms: _279  and  _282
REMARK  111  A    between atoms: _282  and  _283
REMARK  112  A    between atoms: _286  and  _288
REMARK  113  A    between atoms: _288  and  _289
REMARK  114  A    between atoms: _288  and  _291
REMARK  115  A    between atoms: _291  and  _292
REMARK  116  A    between atoms: _297  and  _298
REMARK  117  A    between atoms: _300  and  _302
REMARK  118  A    between atoms: _302  and  _303
REMARK  119  A    between atoms: _302  and  _305
REMARK  120  A    between atoms: _305  and  _306
REMARK  121  A    between atoms: _306  and  _307
REMARK  122  A    between atoms: _307  and  _308
REMARK  123  A    between atoms: _317  and  _319
REMARK  124  A    between atoms: _319  and  _320
REMARK  125  A    between atoms: _319  and  _322
REMARK  126  A    between atoms: _322  and  _323
REMARK  127  A    between atoms: _323  and  _324
REMARK  128  A    between atoms: _324  and  _325
REMARK  129  A    between atoms: _325  and  _326
REMARK  130  A    between atoms: _330  and  _332
REMARK  131  A    between atoms: _332  and  _333
REMARK  132  A    between atoms: _332  and  _335
REMARK  133  A    between atoms: _335  and  _336
REMARK  134  A    between atoms: _336  and  _337
REMARK  135  A    between atoms: _340  and  _342
REMARK  136  A    between atoms: _342  and  _343
REMARK  137  A    between atoms: _342  and  _345
REMARK  138  A    between atoms: _348  and  _350
REMARK  139  A    between atoms: _350  and  _351
REMARK  140  A    between atoms: _350  and  _353
REMARK  141  A    between atoms: _353  and  _354
REMARK                            x       y       z     vdW  Elec       q    Type
REMARK                         _______ _______ _______ _____ _____    ______ ____
ROOT
ATOM      1  O   HOH     1      -7.829  -5.479  10.597  0.00  0.00    +0.000 OA
ENDROOT
TORSDOF 0
REMARK  Name = ../refined-set-2016/3arr/3arr_pocket.pdb
REMARK  141 active torsions:
REMARK  status: ('A' for Active; 'I' for Inactive)
REMARK    1  A    between atoms: _1  and  _3
REMARK    2  A    between atoms: _3  and  _4
REMARK    3  A    between atoms: _3  and  _6
REMARK    4  A    between atoms: _6  and  _7
REMARK    5  A    between atoms: _17  and  _19
REMARK    6  A    between atoms: _19  and  _20
REMARK    7  A    between atoms: _19  and  _22
REMARK    8  A    between atoms: _22  and  _23
REMARK    9  A    between atoms: _26  and  _28
REMARK   10  A    between atoms: _28  and  _29
REMARK   11  A    between atoms: _28  and  _31
REMARK   12  A    between atoms: _31  and  _32
REMARK   13  A    between atoms: _32  and  _33
REMARK   14  A    between atoms: _36  and  _38
REMARK   15  A    between atoms: _38  and  _39
REMARK   16  A    between atoms: _38  and  _41
REMARK   17  A    between atoms: _41  and  _42
REMARK   18  A    between atoms: _48  and  _50
REMARK   19  A    between atoms: _50  and  _51
REMARK   20  A    between atoms: _53  and  _55
REMARK   21  A    between atoms: _55  and  _56
REMARK   22  A    between atoms: _58  and  _60
REMARK   23  A    between atoms: _60  and  _61
REMARK   24  A    between atoms: _63  and  _65
REMARK   25  A    between atoms: _65  and  _66
REMARK   26  A    between atoms: _69  and  _71
REMARK   27  A    between atoms: _71  and  _72
REMARK   28  A    between atoms: _71  and  _74
REMARK   29  A    between atoms: _74  and  _75
REMARK   30  A    between atoms: _78  and  _80
REMARK   31  A    between atoms: _80  and  _81
REMARK   32  A    between atoms: _83  and  _85
REMARK   33  A    between atoms: _85  and  _86
REMARK   34  A    between atoms: _85  and  _88
REMARK   35  A    between atoms: _91  and  _93
REMARK   36  A    between atoms: _93  and  _94
REMARK   37  A    between atoms: _96  and  _98
REMARK   38  A    between atoms: _98  and  _99
REMARK   39  A    between atoms: _98  and  _101
REMARK   40  A    between atoms: _101  and  _102
REMARK   41  A    between atoms: _107  and  _108
REMARK   42  A    between atoms: _110  and  _112
REMARK   43  A    between atoms: _112  and  _113
REMARK   44  A    between atoms: _112  and  _115
REMARK   45  A    between atoms: _115  and  _116
REMARK   46  A    between atoms: _119  and  _121
REMARK   47  A    between atoms: _121  and  _122
REMARK   48  A    between atoms: _121  and  _124
REMARK   49  A    between atoms: _124  and  _125
REMARK   50  A    between atoms: _125  and  _126
REMARK   51  A    between atoms: _126  and  _127
REMARK   52  A    between atoms: _127  and  _128
REMARK   53  A    between atoms: _132  and  _134
REMARK   54  A    between atoms: _134  and  _135
REMARK   55  A    between atoms: _134  and  _137
REMARK   56  A    between atoms: _137  and  _138
REMARK   57  A    between atoms: _141  and  _143
REMARK   58  A    between atoms: _143  and  _144
REMARK   59  A    between atoms: _143  and  _146
REMARK   60  A    between atoms: _146  and  _147
REMARK   61  A    between atoms: _147  and  _148
REMARK   62  A    between atoms: _150  and  _152
REMARK   63  A    between atoms: _152  and  _153
REMARK   64  A    between atoms: _152  and  _155
REMARK   65  A    between atoms: _155  and  _156
REMARK   66  A    between atoms: _159  and  _161
REMARK   67  A    between atoms: _161  and  _162
REMARK   68  A    between atoms: _161  and  _164
REMARK   69  A    between atoms: _164  and  _165
REMARK   70  A    between atoms: _170  and  _171
REMARK   71  A    between atoms: _173  and  _175
REMARK   72  A    between atoms: _175  and  _176
REMARK   73  A    between atoms: _175  and  _178
REMARK   74  A    between atoms: _178  and  _179
REMARK   75  A    between atoms: _182  and  _184
REMARK   76  A    between atoms: _184  and  _185
REMARK   77  A    between atoms: _184  and  _187
REMARK   78  A    between atoms: _187  and  _188
REMARK   79  A    between atoms: _194  and  _196
REMARK   80  A    between atoms: _196  and  _197
REMARK   81  A    between atoms: _196  and  _199
REMARK   82  A    between atoms: _199  and  _200
REMARK   83  A    between atoms: _205  and  _206
REMARK   84  A    between atoms: _208  and  _210
REMARK   85  A    between atoms: _210  and  _211
REMARK   86  A    between atoms: _213  and  _215
REMARK   87  A    between atoms: _215  and  _216
REMARK   88  A    between atoms: _218  and  _220
REMARK   89  A    between atoms: _220  and  _221
REMARK   90  A    between atoms: _220  and  _223
REMARK   91  A    between atoms: _223  and  _224
REMARK   92  A    between atoms: _234  and  _236
REMARK   93  A    between atoms: _236  and  _237
REMARK   94  A    between atoms: _236  and  _239
REMARK   95  A    between atoms: _239  and  _240
REMARK   96  A    between atoms: _245  and  _247
REMARK   97  A    between atoms: _247  and  _248
REMARK   98  A    between atoms: _247  and  _250
REMARK   99  A    between atoms: _250  and  _251
REMARK  100  A    between atoms: _251  and  _252
REMARK  101  A    between atoms: _257  and  _259
REMARK  102  A    between atoms: _259  and  _260
REMARK  103  A    between atoms: _263  and  _265
REMARK  104  A    between atoms: _265  and  _266
REMARK  105  A    between atoms: _265  and  _268
REMARK  106  A    between atoms: _268  and  _269
REMARK  107  A    between atoms: _274  and  _275
REMARK  108  A    between atoms: _277  and  _279
REMARK  109  A    between atoms: _279  and  _280
REMARK  110  A    between atoms: _279  and  _282
REMARK  111  A    between atoms: _282  and  _283
REMARK  112  A    between atoms: _286  and  _288
REMARK  113  A    between atoms: _288  and  _289
REMARK  114  A    between atoms: _288  and  _291
REMARK  115  A    between atoms: _291  and  _292
REMARK  116  A    between atoms: _297  and  _298
REMARK  117  A    between atoms: _300  and  _302
REMARK  118  A    between atoms: _302  and  _303
REMARK  119  A    between atoms: _302  and  _305
REMARK  120  A    between atoms: _305  and  _306
REMARK  121  A    between atoms: _306  and  _307
REMARK  122  A    between atoms: _307  and  _308
REMARK  123  A    between atoms: _317  and  _319
REMARK  124  A    between atoms: _319  and  _320
REMARK  125  A    between atoms: _319  and  _322
REMARK  126  A    between atoms: _322  and  _323
REMARK  127  A    between atoms: _323  and  _324
REMARK  128  A    between atoms: _324  and  _325
REMARK  129  A    between atoms: _325  and  _326
REMARK  130  A    between atoms: _330  and  _332
REMARK  131  A    between atoms: _332  and  _333
REMARK  132  A    between atoms: _332  and  _335
REMARK  133  A    between atoms: _335  and  _336
REMARK  134  A    between atoms: _336  and  _337
REMARK  135  A    between atoms: _340  and  _342
REMARK  136  A    between atoms: _342  and  _343
REMARK  137  A    between atoms: _342  and  _345
REMARK  138  A    between atoms: _348  and  _350
REMARK  139  A    between atoms: _350  and  _351
REMARK  140  A    between atoms: _350  and  _353
REMARK  141  A    between atoms: _353  and  _354
REMARK                            x       y       z     vdW  Elec       q    Type
REMARK                         _______ _______ _______ _____ _____    ______ ____
ROOT
ATOM      1  O   HOH     1     -12.324 -12.817  -1.726  0.00  0.00    +0.000 OA
ENDROOT
TORSDOF 0
REMARK  Name = ../refined-set-2016/3arr/3arr_pocket.pdb
REMARK  141 active torsions:
REMARK  status: ('A' for Active; 'I' for Inactive)
REMARK    1  A    between atoms: _1  and  _3
REMARK    2  A    between atoms: _3  and  _4
REMARK    3  A    between atoms: _3  and  _6
REMARK    4  A    between atoms: _6  and  _7
REMARK    5  A    between atoms: _17  and  _19
REMARK    6  A    between atoms: _19  and  _20
REMARK    7  A    between atoms: _19  and  _22
REMARK    8  A    between atoms: _22  and  _23
REMARK    9  A    between atoms: _26  and  _28
REMARK   10  A    between atoms: _28  and  _29
REMARK   11  A    between atoms: _28  and  _31
REMARK   12  A    between atoms: _31  and  _32
REMARK   13  A    between atoms: _32  and  _33
REMARK   14  A    between atoms: _36  and  _38
REMARK   15  A    between atoms: _38  and  _39
REMARK   16  A    between atoms: _38  and  _41
REMARK   17  A    between atoms: _41  and  _42
REMARK   18  A    between atoms: _48  and  _50
REMARK   19  A    between atoms: _50  and  _51
REMARK   20  A    between atoms: _53  and  _55
REMARK   21  A    between atoms: _55  and  _56
REMARK   22  A    between atoms: _58  and  _60
REMARK   23  A    between atoms: _60  and  _61
REMARK   24  A    between atoms: _63  and  _65
REMARK   25  A    between atoms: _65  and  _66
REMARK   26  A    between atoms: _69  and  _71
REMARK   27  A    between atoms: _71  and  _72
REMARK   28  A    between atoms: _71  and  _74
REMARK   29  A    between atoms: _74  and  _75
REMARK   30  A    between atoms: _78  and  _80
REMARK   31  A    between atoms: _80  and  _81
REMARK   32  A    between atoms: _83  and  _85
REMARK   33  A    between atoms: _85  and  _86
REMARK   34  A    between atoms: _85  and  _88
REMARK   35  A    between atoms: _91  and  _93
REMARK   36  A    between atoms: _93  and  _94
REMARK   37  A    between atoms: _96  and  _98
REMARK   38  A    between atoms: _98  and  _99
REMARK   39  A    between atoms: _98  and  _101
REMARK   40  A    between atoms: _101  and  _102
REMARK   41  A    between atoms: _107  and  _108
REMARK   42  A    between atoms: _110  and  _112
REMARK   43  A    between atoms: _112  and  _113
REMARK   44  A    between atoms: _112  and  _115
REMARK   45  A    between atoms: _115  and  _116
REMARK   46  A    between atoms: _119  and  _121
REMARK   47  A    between atoms: _121  and  _122
REMARK   48  A    between atoms: _121  and  _124
REMARK   49  A    between atoms: _124  and  _125
REMARK   50  A    between atoms: _125  and  _126
REMARK   51  A    between atoms: _126  and  _127
REMARK   52  A    between atoms: _127  and  _128
REMARK   53  A    between atoms: _132  and  _134
REMARK   54  A    between atoms: _134  and  _135
REMARK   55  A    between atoms: _134  and  _137
REMARK   56  A    between atoms: _137  and  _138
REMARK   57  A    between atoms: _141  and  _143
REMARK   58  A    between atoms: _143  and  _144
REMARK   59  A    between atoms: _143  and  _146
REMARK   60  A    between atoms: _146  and  _147
REMARK   61  A    between atoms: _147  and  _148
REMARK   62  A    between atoms: _150  and  _152
REMARK   63  A    between atoms: _152  and  _153
REMARK   64  A    between atoms: _152  and  _155
REMARK   65  A    between atoms: _155  and  _156
REMARK   66  A    between atoms: _159  and  _161
REMARK   67  A    between atoms: _161  and  _162
REMARK   68  A    between atoms: _161  and  _164
REMARK   69  A    between atoms: _164  and  _165
REMARK   70  A    between atoms: _170  and  _171
REMARK   71  A    between atoms: _173  and  _175
REMARK   72  A    between atoms: _175  and  _176
REMARK   73  A    between atoms: _175  and  _178
REMARK   74  A    between atoms: _178  and  _179
REMARK   75  A    between atoms: _182  and  _184
REMARK   76  A    between atoms: _184  and  _185
REMARK   77  A    between atoms: _184  and  _187
REMARK   78  A    between atoms: _187  and  _188
REMARK   79  A    between atoms: _194  and  _196
REMARK   80  A    between atoms: _196  and  _197
REMARK   81  A    between atoms: _196  and  _199
REMARK   82  A    between atoms: _199  and  _200
REMARK   83  A    between atoms: _205  and  _206
REMARK   84  A    between atoms: _208  and  _210
REMARK   85  A    between atoms: _210  and  _211
REMARK   86  A    between atoms: _213  and  _215
REMARK   87  A    between atoms: _215  and  _216
REMARK   88  A    between atoms: _218  and  _220
REMARK   89  A    between atoms: _220  and  _221
REMARK   90  A    between atoms: _220  and  _223
REMARK   91  A    between atoms: _223  and  _224
REMARK   92  A    between atoms: _234  and  _236
REMARK   93  A    between atoms: _236  and  _237
REMARK   94  A    between atoms: _236  and  _239
REMARK   95  A    between atoms: _239  and  _240
REMARK   96  A    between atoms: _245  and  _247
REMARK   97  A    between atoms: _247  and  _248
REMARK   98  A    between atoms: _247  and  _250
REMARK   99  A    between atoms: _250  and  _251
REMARK  100  A    between atoms: _251  and  _252
REMARK  101  A    between atoms: _257  and  _259
REMARK  102  A    between atoms: _259  and  _260
REMARK  103  A    between atoms: _263  and  _265
REMARK  104  A    between atoms: _265  and  _266
REMARK  105  A    between atoms: _265  and  _268
REMARK  106  A    between atoms: _268  and  _269
REMARK  107  A    between atoms: _274  and  _275
REMARK  108  A    between atoms: _277  and  _279
REMARK  109  A    between atoms: _279  and  _280
REMARK  110  A    between atoms: _279  and  _282
REMARK  111  A    between atoms: _282  and  _283
REMARK  112  A    between atoms: _286  and  _288
REMARK  113  A    between atoms: _288  and  _289
REMARK  114  A    between atoms: _288  and  _291
REMARK  115  A    between atoms: _291  and  _292
REMARK  116  A    between atoms: _297  and  _298
REMARK  117  A    between atoms: _300  and  _302
REMARK  118  A    between atoms: _302  and  _303
REMARK  119  A    between atoms: _302  and  _305
REMARK  120  A    between atoms: _305  and  _306
REMARK  121  A    between atoms: _306  and  _307
REMARK  122  A    between atoms: _307  and  _308
REMARK  123  A    between atoms: _317  and  _319
REMARK  124  A    between atoms: _319  and  _320
REMARK  125  A    between atoms: _319  and  _322
REMARK  126  A    between atoms: _322  and  _323
REMARK  127  A    between atoms: _323  and  _324
REMARK  128  A    between atoms: _324  and  _325
REMARK  129  A    between atoms: _325  and  _326
REMARK  130  A    between atoms: _330  and  _332
REMARK  131  A    between atoms: _332  and  _333
REMARK  132  A    between atoms: _332  and  _335
REMARK  133  A    between atoms: _335  and  _336
REMARK  134  A    between atoms: _336  and  _337
REMARK  135  A    between atoms: _340  and  _342
REMARK  136  A    between atoms: _342  and  _343
REMARK  137  A    between atoms: _342  and  _345
REMARK  138  A    between atoms: _348  and  _350
REMARK  139  A    between atoms: _350  and  _351
REMARK  140  A    between atoms: _350  and  _353
REMARK  141  A    between atoms: _353  and  _354
REMARK                            x       y       z     vdW  Elec       q    Type
REMARK                         _______ _______ _______ _____ _____    ______ ____
ROOT
ATOM      1  O   HOH     1       2.050 -13.056   0.663  0.00  0.00    +0.000 OA
ENDROOT
TORSDOF 0
REMARK  Name = ../refined-set-2016/3arr/3arr_pocket.pdb
REMARK  141 active torsions:
REMARK  status: ('A' for Active; 'I' for Inactive)
REMARK    1  A    between atoms: _1  and  _3
REMARK    2  A    between atoms: _3  and  _4
REMARK    3  A    between atoms: _3  and  _6
REMARK    4  A    between atoms: _6  and  _7
REMARK    5  A    between atoms: _17  and  _19
REMARK    6  A    between atoms: _19  and  _20
REMARK    7  A    between atoms: _19  and  _22
REMARK    8  A    between atoms: _22  and  _23
REMARK    9  A    between atoms: _26  and  _28
REMARK   10  A    between atoms: _28  and  _29
REMARK   11  A    between atoms: _28  and  _31
REMARK   12  A    between atoms: _31  and  _32
REMARK   13  A    between atoms: _32  and  _33
REMARK   14  A    between atoms: _36  and  _38
REMARK   15  A    between atoms: _38  and  _39
REMARK   16  A    between atoms: _38  and  _41
REMARK   17  A    between atoms: _41  and  _42
REMARK   18  A    between atoms: _48  and  _50
REMARK   19  A    between atoms: _50  and  _51
REMARK   20  A    between atoms: _53  and  _55
REMARK   21  A    between atoms: _55  and  _56
REMARK   22  A    between atoms: _58  and  _60
REMARK   23  A    between atoms: _60  and  _61
REMARK   24  A    between atoms: _63  and  _65
REMARK   25  A    between atoms: _65  and  _66
REMARK   26  A    between atoms: _69  and  _71
REMARK   27  A    between atoms: _71  and  _72
REMARK   28  A    between atoms: _71  and  _74
REMARK   29  A    between atoms: _74  and  _75
REMARK   30  A    between atoms: _78  and  _80
REMARK   31  A    between atoms: _80  and  _81
REMARK   32  A    between atoms: _83  and  _85
REMARK   33  A    between atoms: _85  and  _86
REMARK   34  A    between atoms: _85  and  _88
REMARK   35  A    between atoms: _91  and  _93
REMARK   36  A    between atoms: _93  and  _94
REMARK   37  A    between atoms: _96  and  _98
REMARK   38  A    between atoms: _98  and  _99
REMARK   39  A    between atoms: _98  and  _101
REMARK   40  A    between atoms: _101  and  _102
REMARK   41  A    between atoms: _107  and  _108
REMARK   42  A    between atoms: _110  and  _112
REMARK   43  A    between atoms: _112  and  _113
REMARK   44  A    between atoms: _112  and  _115
REMARK   45  A    between atoms: _115  and  _116
REMARK   46  A    between atoms: _119  and  _121
REMARK   47  A    between atoms: _121  and  _122
REMARK   48  A    between atoms: _121  and  _124
REMARK   49  A    between atoms: _124  and  _125
REMARK   50  A    between atoms: _125  and  _126
REMARK   51  A    between atoms: _126  and  _127
REMARK   52  A    between atoms: _127  and  _128
REMARK   53  A    between atoms: _132  and  _134
REMARK   54  A    between atoms: _134  and  _135
REMARK   55  A    between atoms: _134  and  _137
REMARK   56  A    between atoms: _137  and  _138
REMARK   57  A    between atoms: _141  and  _143
REMARK   58  A    between atoms: _143  and  _144
REMARK   59  A    between atoms: _143  and  _146
REMARK   60  A    between atoms: _146  and  _147
REMARK   61  A    between atoms: _147  and  _148
REMARK   62  A    between atoms: _150  and  _152
REMARK   63  A    between atoms: _152  and  _153
REMARK   64  A    between atoms: _152  and  _155
REMARK   65  A    between atoms: _155  and  _156
REMARK   66  A    between atoms: _159  and  _161
REMARK   67  A    between atoms: _161  and  _162
REMARK   68  A    between atoms: _161  and  _164
REMARK   69  A    between atoms: _164  and  _165
REMARK   70  A    between atoms: _170  and  _171
REMARK   71  A    between atoms: _173  and  _175
REMARK   72  A    between atoms: _175  and  _176
REMARK   73  A    between atoms: _175  and  _178
REMARK   74  A    between atoms: _178  and  _179
REMARK   75  A    between atoms: _182  and  _184
REMARK   76  A    between atoms: _184  and  _185
REMARK   77  A    between atoms: _184  and  _187
REMARK   78  A    between atoms: _187  and  _188
REMARK   79  A    between atoms: _194  and  _196
REMARK   80  A    between atoms: _196  and  _197
REMARK   81  A    between atoms: _196  and  _199
REMARK   82  A    between atoms: _199  and  _200
REMARK   83  A    between atoms: _205  and  _206
REMARK   84  A    between atoms: _208  and  _210
REMARK   85  A    between atoms: _210  and  _211
REMARK   86  A    between atoms: _213  and  _215
REMARK   87  A    between atoms: _215  and  _216
REMARK   88  A    between atoms: _218  and  _220
REMARK   89  A    between atoms: _220  and  _221
REMARK   90  A    between atoms: _220  and  _223
REMARK   91  A    between atoms: _223  and  _224
REMARK   92  A    between atoms: _234  and  _236
REMARK   93  A    between atoms: _236  and  _237
REMARK   94  A    between atoms: _236  and  _239
REMARK   95  A    between atoms: _239  and  _240
REMARK   96  A    between atoms: _245  and  _247
REMARK   97  A    between atoms: _247  and  _248
REMARK   98  A    between atoms: _247  and  _250
REMARK   99  A    between atoms: _250  and  _251
REMARK  100  A    between atoms: _251  and  _252
REMARK  101  A    between atoms: _257  and  _259
REMARK  102  A    between atoms: _259  and  _260
REMARK  103  A    between atoms: _263  and  _265
REMARK  104  A    between atoms: _265  and  _266
REMARK  105  A    between atoms: _265  and  _268
REMARK  106  A    between atoms: _268  and  _269
REMARK  107  A    between atoms: _274  and  _275
REMARK  108  A    between atoms: _277  and  _279
REMARK  109  A    between atoms: _279  and  _280
REMARK  110  A    between atoms: _279  and  _282
REMARK  111  A    between atoms: _282  and  _283
REMARK  112  A    between atoms: _286  and  _288
REMARK  113  A    between atoms: _288  and  _289
REMARK  114  A    between atoms: _288  and  _291
REMARK  115  A    between atoms: _291  and  _292
REMARK  116  A    between atoms: _297  and  _298
REMARK  117  A    between atoms: _300  and  _302
REMARK  118  A    between atoms: _302  and  _303
REMARK  119  A    between atoms: _302  and  _305
REMARK  120  A    between atoms: _305  and  _306
REMARK  121  A    between atoms: _306  and  _307
REMARK  122  A    between atoms: _307  and  _308
REMARK  123  A    between atoms: _317  and  _319
REMARK  124  A    between atoms: _319  and  _320
REMARK  125  A    between atoms: _319  and  _322
REMARK  126  A    between atoms: _322  and  _323
REMARK  127  A    between atoms: _323  and  _324
REMARK  128  A    between atoms: _324  and  _325
REMARK  129  A    between atoms: _325  and  _326
REMARK  130  A    between atoms: _330  and  _332
REMARK  131  A    between atoms: _332  and  _333
REMARK  132  A    between atoms: _332  and  _335
REMARK  133  A    between atoms: _335  and  _336
REMARK  134  A    between atoms: _336  and  _337
REMARK  135  A    between atoms: _340  and  _342
REMARK  136  A    between atoms: _342  and  _343
REMARK  137  A    between atoms: _342  and  _345
REMARK  138  A    between atoms: _348  and  _350
REMARK  139  A    between atoms: _350  and  _351
REMARK  140  A    between atoms: _350  and  _353
REMARK  141  A    between atoms: _353  and  _354
REMARK                            x       y       z     vdW  Elec       q    Type
REMARK                         _______ _______ _______ _____ _____    ______ ____
ROOT
ATOM      1  O   HOH     1      -3.693 -21.394  -4.044  0.00  0.00    +0.000 OA
ENDROOT
TORSDOF 0
REMARK  Name = ../refined-set-2016/3arr/3arr_pocket.pdb
REMARK  141 active torsions:
REMARK  status: ('A' for Active; 'I' for Inactive)
REMARK    1  A    between atoms: _1  and  _3
REMARK    2  A    between atoms: _3  and  _4
REMARK    3  A    between atoms: _3  and  _6
REMARK    4  A    between atoms: _6  and  _7
REMARK    5  A    between atoms: _17  and  _19
REMARK    6  A    between atoms: _19  and  _20
REMARK    7  A    between atoms: _19  and  _22
REMARK    8  A    between atoms: _22  and  _23
REMARK    9  A    between atoms: _26  and  _28
REMARK   10  A    between atoms: _28  and  _29
REMARK   11  A    between atoms: _28  and  _31
REMARK   12  A    between atoms: _31  and  _32
REMARK   13  A    between atoms: _32  and  _33
REMARK   14  A    between atoms: _36  and  _38
REMARK   15  A    between atoms: _38  and  _39
REMARK   16  A    between atoms: _38  and  _41
REMARK   17  A    between atoms: _41  and  _42
REMARK   18  A    between atoms: _48  and  _50
REMARK   19  A    between atoms: _50  and  _51
REMARK   20  A    between atoms: _53  and  _55
REMARK   21  A    between atoms: _55  and  _56
REMARK   22  A    between atoms: _58  and  _60
REMARK   23  A    between atoms: _60  and  _61
REMARK   24  A    between atoms: _63  and  _65
REMARK   25  A    between atoms: _65  and  _66
REMARK   26  A    between atoms: _69  and  _71
REMARK   27  A    between atoms: _71  and  _72
REMARK   28  A    between atoms: _71  and  _74
REMARK   29  A    between atoms: _74  and  _75
REMARK   30  A    between atoms: _78  and  _80
REMARK   31  A    between atoms: _80  and  _81
REMARK   32  A    between atoms: _83  and  _85
REMARK   33  A    between atoms: _85  and  _86
REMARK   34  A    between atoms: _85  and  _88
REMARK   35  A    between atoms: _91  and  _93
REMARK   36  A    between atoms: _93  and  _94
REMARK   37  A    between atoms: _96  and  _98
REMARK   38  A    between atoms: _98  and  _99
REMARK   39  A    between atoms: _98  and  _101
REMARK   40  A    between atoms: _101  and  _102
REMARK   41  A    between atoms: _107  and  _108
REMARK   42  A    between atoms: _110  and  _112
REMARK   43  A    between atoms: _112  and  _113
REMARK   44  A    between atoms: _112  and  _115
REMARK   45  A    between atoms: _115  and  _116
REMARK   46  A    between atoms: _119  and  _121
REMARK   47  A    between atoms: _121  and  _122
REMARK   48  A    between atoms: _121  and  _124
REMARK   49  A    between atoms: _124  and  _125
REMARK   50  A    between atoms: _125  and  _126
REMARK   51  A    between atoms: _126  and  _127
REMARK   52  A    between atoms: _127  and  _128
REMARK   53  A    between atoms: _132  and  _134
REMARK   54  A    between atoms: _134  and  _135
REMARK   55  A    between atoms: _134  and  _137
REMARK   56  A    between atoms: _137  and  _138
REMARK   57  A    between atoms: _141  and  _143
REMARK   58  A    between atoms: _143  and  _144
REMARK   59  A    between atoms: _143  and  _146
REMARK   60  A    between atoms: _146  and  _147
REMARK   61  A    between atoms: _147  and  _148
REMARK   62  A    between atoms: _150  and  _152
REMARK   63  A    between atoms: _152  and  _153
REMARK   64  A    between atoms: _152  and  _155
REMARK   65  A    between atoms: _155  and  _156
REMARK   66  A    between atoms: _159  and  _161
REMARK   67  A    between atoms: _161  and  _162
REMARK   68  A    between atoms: _161  and  _164
REMARK   69  A    between atoms: _164  and  _165
REMARK   70  A    between atoms: _170  and  _171
REMARK   71  A    between atoms: _173  and  _175
REMARK   72  A    between atoms: _175  and  _176
REMARK   73  A    between atoms: _175  and  _178
REMARK   74  A    between atoms: _178  and  _179
REMARK   75  A    between atoms: _182  and  _184
REMARK   76  A    between atoms: _184  and  _185
REMARK   77  A    between atoms: _184  and  _187
REMARK   78  A    between atoms: _187  and  _188
REMARK   79  A    between atoms: _194  and  _196
REMARK   80  A    between atoms: _196  and  _197
REMARK   81  A    between atoms: _196  and  _199
REMARK   82  A    between atoms: _199  and  _200
REMARK   83  A    between atoms: _205  and  _206
REMARK   84  A    between atoms: _208  and  _210
REMARK   85  A    between atoms: _210  and  _211
REMARK   86  A    between atoms: _213  and  _215
REMARK   87  A    between atoms: _215  and  _216
REMARK   88  A    between atoms: _218  and  _220
REMARK   89  A    between atoms: _220  and  _221
REMARK   90  A    between atoms: _220  and  _223
REMARK   91  A    between atoms: _223  and  _224
REMARK   92  A    between atoms: _234  and  _236
REMARK   93  A    between atoms: _236  and  _237
REMARK   94  A    between atoms: _236  and  _239
REMARK   95  A    between atoms: _239  and  _240
REMARK   96  A    between atoms: _245  and  _247
REMARK   97  A    between atoms: _247  and  _248
REMARK   98  A    between atoms: _247  and  _250
REMARK   99  A    between atoms: _250  and  _251
REMARK  100  A    between atoms: _251  and  _252
REMARK  101  A    between atoms: _257  and  _259
REMARK  102  A    between atoms: _259  and  _260
REMARK  103  A    between atoms: _263  and  _265
REMARK  104  A    between atoms: _265  and  _266
REMARK  105  A    between atoms: _265  and  _268
REMARK  106  A    between atoms: _268  and  _269
REMARK  107  A    between atoms: _274  and  _275
REMARK  108  A    between atoms: _277  and  _279
REMARK  109  A    between atoms: _279  and  _280
REMARK  110  A    between atoms: _279  and  _282
REMARK  111  A    between atoms: _282  and  _283
REMARK  112  A    between atoms: _286  and  _288
REMARK  113  A    between atoms: _288  and  _289
REMARK  114  A    between atoms: _288  and  _291
REMARK  115  A    between atoms: _291  and  _292
REMARK  116  A    between atoms: _297  and  _298
REMARK  117  A    between atoms: _300  and  _302
REMARK  118  A    between atoms: _302  and  _303
REMARK  119  A    between atoms: _302  and  _305
REMARK  120  A    between atoms: _305  and  _306
REMARK  121  A    between atoms: _306  and  _307
REMARK  122  A    between atoms: _307  and  _308
REMARK  123  A    between atoms: _317  and  _319
REMARK  124  A    between atoms: _319  and  _320
REMARK  125  A    between atoms: _319  and  _322
REMARK  126  A    between atoms: _322  and  _323
REMARK  127  A    between atoms: _323  and  _324
REMARK  128  A    between atoms: _324  and  _325
REMARK  129  A    between atoms: _325  and  _326
REMARK  130  A    between atoms: _330  and  _332
REMARK  131  A    between atoms: _332  and  _333
REMARK  132  A    between atoms: _332  and  _335
REMARK  133  A    between atoms: _335  and  _336
REMARK  134  A    between atoms: _336  and  _337
REMARK  135  A    between atoms: _340  and  _342
REMARK  136  A    between atoms: _342  and  _343
REMARK  137  A    between atoms: _342  and  _345
REMARK  138  A    between atoms: _348  and  _350
REMARK  139  A    between atoms: _350  and  _351
REMARK  140  A    between atoms: _350  and  _353
REMARK  141  A    between atoms: _353  and  _354
REMARK                            x       y       z     vdW  Elec       q    Type
REMARK                         _______ _______ _______ _____ _____    ______ ____
ROOT
ATOM      1  O   HOH     1      -1.796  -4.651  10.222  0.00  0.00    +0.000 OA
ENDROOT
TORSDOF 0
REMARK  Name = ../refined-set-2016/3arr/3arr_pocket.pdb
REMARK  141 active torsions:
REMARK  status: ('A' for Active; 'I' for Inactive)
REMARK    1  A    between atoms: _1  and  _3
REMARK    2  A    between atoms: _3  and  _4
REMARK    3  A    between atoms: _3  and  _6
REMARK    4  A    between atoms: _6  and  _7
REMARK    5  A    between atoms: _17  and  _19
REMARK    6  A    between atoms: _19  and  _20
REMARK    7  A    between atoms: _19  and  _22
REMARK    8  A    between atoms: _22  and  _23
REMARK    9  A    between atoms: _26  and  _28
REMARK   10  A    between atoms: _28  and  _29
REMARK   11  A    between atoms: _28  and  _31
REMARK   12  A    between atoms: _31  and  _32
REMARK   13  A    between atoms: _32  and  _33
REMARK   14  A    between atoms: _36  and  _38
REMARK   15  A    between atoms: _38  and  _39
REMARK   16  A    between atoms: _38  and  _41
REMARK   17  A    between atoms: _41  and  _42
REMARK   18  A    between atoms: _48  and  _50
REMARK   19  A    between atoms: _50  and  _51
REMARK   20  A    between atoms: _53  and  _55
REMARK   21  A    between atoms: _55  and  _56
REMARK   22  A    between atoms: _58  and  _60
REMARK   23  A    between atoms: _60  and  _61
REMARK   24  A    between atoms: _63  and  _65
REMARK   25  A    between atoms: _65  and  _66
REMARK   26  A    between atoms: _69  and  _71
REMARK   27  A    between atoms: _71  and  _72
REMARK   28  A    between atoms: _71  and  _74
REMARK   29  A    between atoms: _74  and  _75
REMARK   30  A    between atoms: _78  and  _80
REMARK   31  A    between atoms: _80  and  _81
REMARK   32  A    between atoms: _83  and  _85
REMARK   33  A    between atoms: _85  and  _86
REMARK   34  A    between atoms: _85  and  _88
REMARK   35  A    between atoms: _91  and  _93
REMARK   36  A    between atoms: _93  and  _94
REMARK   37  A    between atoms: _96  and  _98
REMARK   38  A    between atoms: _98  and  _99
REMARK   39  A    between atoms: _98  and  _101
REMARK   40  A    between atoms: _101  and  _102
REMARK   41  A    between atoms: _107  and  _108
REMARK   42  A    between atoms: _110  and  _112
REMARK   43  A    between atoms: _112  and  _113
REMARK   44  A    between atoms: _112  and  _115
REMARK   45  A    between atoms: _115  and  _116
REMARK   46  A    between atoms: _119  and  _121
REMARK   47  A    between atoms: _121  and  _122
REMARK   48  A    between atoms: _121  and  _124
REMARK   49  A    between atoms: _124  and  _125
REMARK   50  A    between atoms: _125  and  _126
REMARK   51  A    between atoms: _126  and  _127
REMARK   52  A    between atoms: _127  and  _128
REMARK   53  A    between atoms: _132  and  _134
REMARK   54  A    between atoms: _134  and  _135
REMARK   55  A    between atoms: _134  and  _137
REMARK   56  A    between atoms: _137  and  _138
REMARK   57  A    between atoms: _141  and  _143
REMARK   58  A    between atoms: _143  and  _144
REMARK   59  A    between atoms: _143  and  _146
REMARK   60  A    between atoms: _146  and  _147
REMARK   61  A    between atoms: _147  and  _148
REMARK   62  A    between atoms: _150  and  _152
REMARK   63  A    between atoms: _152  and  _153
REMARK   64  A    between atoms: _152  and  _155
REMARK   65  A    between atoms: _155  and  _156
REMARK   66  A    between atoms: _159  and  _161
REMARK   67  A    between atoms: _161  and  _162
REMARK   68  A    between atoms: _161  and  _164
REMARK   69  A    between atoms: _164  and  _165
REMARK   70  A    between atoms: _170  and  _171
REMARK   71  A    between atoms: _173  and  _175
REMARK   72  A    between atoms: _175  and  _176
REMARK   73  A    between atoms: _175  and  _178
REMARK   74  A    between atoms: _178  and  _179
REMARK   75  A    between atoms: _182  and  _184
REMARK   76  A    between atoms: _184  and  _185
REMARK   77  A    between atoms: _184  and  _187
REMARK   78  A    between atoms: _187  and  _188
REMARK   79  A    between atoms: _194  and  _196
REMARK   80  A    between atoms: _196  and  _197
REMARK   81  A    between atoms: _196  and  _199
REMARK   82  A    between atoms: _199  and  _200
REMARK   83  A    between atoms: _205  and  _206
REMARK   84  A    between atoms: _208  and  _210
REMARK   85  A    between atoms: _210  and  _211
REMARK   86  A    between atoms: _213  and  _215
REMARK   87  A    between atoms: _215  and  _216
REMARK   88  A    between atoms: _218  and  _220
REMARK   89  A    between atoms: _220  and  _221
REMARK   90  A    between atoms: _220  and  _223
REMARK   91  A    between atoms: _223  and  _224
REMARK   92  A    between atoms: _234  and  _236
REMARK   93  A    between atoms: _236  and  _237
REMARK   94  A    between atoms: _236  and  _239
REMARK   95  A    between atoms: _239  and  _240
REMARK   96  A    between atoms: _245  and  _247
REMARK   97  A    between atoms: _247  and  _248
REMARK   98  A    between atoms: _247  and  _250
REMARK   99  A    between atoms: _250  and  _251
REMARK  100  A    between atoms: _251  and  _252
REMARK  101  A    between atoms: _257  and  _259
REMARK  102  A    between atoms: _259  and  _260
REMARK  103  A    between atoms: _263  and  _265
REMARK  104  A    between atoms: _265  and  _266
REMARK  105  A    between atoms: _265  and  _268
REMARK  106  A    between atoms: _268  and  _269
REMARK  107  A    between atoms: _274  and  _275
REMARK  108  A    between atoms: _277  and  _279
REMARK  109  A    between atoms: _279  and  _280
REMARK  110  A    between atoms: _279  and  _282
REMARK  111  A    between atoms: _282  and  _283
REMARK  112  A    between atoms: _286  and  _288
REMARK  113  A    between atoms: _288  and  _289
REMARK  114  A    between atoms: _288  and  _291
REMARK  115  A    between atoms: _291  and  _292
REMARK  116  A    between atoms: _297  and  _298
REMARK  117  A    between atoms: _300  and  _302
REMARK  118  A    between atoms: _302  and  _303
REMARK  119  A    between atoms: _302  and  _305
REMARK  120  A    between atoms: _305  and  _306
REMARK  121  A    between atoms: _306  and  _307
REMARK  122  A    between atoms: _307  and  _308
REMARK  123  A    between atoms: _317  and  _319
REMARK  124  A    between atoms: _319  and  _320
REMARK  125  A    between atoms: _319  and  _322
REMARK  126  A    between atoms: _322  and  _323
REMARK  127  A    between atoms: _323  and  _324
REMARK  128  A    between atoms: _324  and  _325
REMARK  129  A    between atoms: _325  and  _326
REMARK  130  A    between atoms: _330  and  _332
REMARK  131  A    between atoms: _332  and  _333
REMARK  132  A    between atoms: _332  and  _335
REMARK  133  A    between atoms: _335  and  _336
REMARK  134  A    between atoms: _336  and  _337
REMARK  135  A    between atoms: _340  and  _342
REMARK  136  A    between atoms: _342  and  _343
REMARK  137  A    between atoms: _342  and  _345
REMARK  138  A    between atoms: _348  and  _350
REMARK  139  A    between atoms: _350  and  _351
REMARK  140  A    between atoms: _350  and  _353
REMARK  141  A    between atoms: _353  and  _354
REMARK                            x       y       z     vdW  Elec       q    Type
REMARK                         _______ _______ _______ _____ _____    ______ ____
ROOT
ATOM      1  O   HOH     1      -0.866 -16.823  -1.402  0.00  0.00    +0.000 OA
ENDROOT
TORSDOF 0
REMARK  Name = ../refined-set-2016/3arr/3arr_pocket.pdb
REMARK  141 active torsions:
REMARK  status: ('A' for Active; 'I' for Inactive)
REMARK    1  A    between atoms: _1  and  _3
REMARK    2  A    between atoms: _3  and  _4
REMARK    3  A    between atoms: _3  and  _6
REMARK    4  A    between atoms: _6  and  _7
REMARK    5  A    between atoms: _17  and  _19
REMARK    6  A    between atoms: _19  and  _20
REMARK    7  A    between atoms: _19  and  _22
REMARK    8  A    between atoms: _22  and  _23
REMARK    9  A    between atoms: _26  and  _28
REMARK   10  A    between atoms: _28  and  _29
REMARK   11  A    between atoms: _28  and  _31
REMARK   12  A    between atoms: _31  and  _32
REMARK   13  A    between atoms: _32  and  _33
REMARK   14  A    between atoms: _36  and  _38
REMARK   15  A    between atoms: _38  and  _39
REMARK   16  A    between atoms: _38  and  _41
REMARK   17  A    between atoms: _41  and  _42
REMARK   18  A    between atoms: _48  and  _50
REMARK   19  A    between atoms: _50  and  _51
REMARK   20  A    between atoms: _53  and  _55
REMARK   21  A    between atoms: _55  and  _56
REMARK   22  A    between atoms: _58  and  _60
REMARK   23  A    between atoms: _60  and  _61
REMARK   24  A    between atoms: _63  and  _65
REMARK   25  A    between atoms: _65  and  _66
REMARK   26  A    between atoms: _69  and  _71
REMARK   27  A    between atoms: _71  and  _72
REMARK   28  A    between atoms: _71  and  _74
REMARK   29  A    between atoms: _74  and  _75
REMARK   30  A    between atoms: _78  and  _80
REMARK   31  A    between atoms: _80  and  _81
REMARK   32  A    between atoms: _83  and  _85
REMARK   33  A    between atoms: _85  and  _86
REMARK   34  A    between atoms: _85  and  _88
REMARK   35  A    between atoms: _91  and  _93
REMARK   36  A    between atoms: _93  and  _94
REMARK   37  A    between atoms: _96  and  _98
REMARK   38  A    between atoms: _98  and  _99
REMARK   39  A    between atoms: _98  and  _101
REMARK   40  A    between atoms: _101  and  _102
REMARK   41  A    between atoms: _107  and  _108
REMARK   42  A    between atoms: _110  and  _112
REMARK   43  A    between atoms: _112  and  _113
REMARK   44  A    between atoms: _112  and  _115
REMARK   45  A    between atoms: _115  and  _116
REMARK   46  A    between atoms: _119  and  _121
REMARK   47  A    between atoms: _121  and  _122
REMARK   48  A    between atoms: _121  and  _124
REMARK   49  A    between atoms: _124  and  _125
REMARK   50  A    between atoms: _125  and  _126
REMARK   51  A    between atoms: _126  and  _127
REMARK   52  A    between atoms: _127  and  _128
REMARK   53  A    between atoms: _132  and  _134
REMARK   54  A    between atoms: _134  and  _135
REMARK   55  A    between atoms: _134  and  _137
REMARK   56  A    between atoms: _137  and  _138
REMARK   57  A    between atoms: _141  and  _143
REMARK   58  A    between atoms: _143  and  _144
REMARK   59  A    between atoms: _143  and  _146
REMARK   60  A    between atoms: _146  and  _147
REMARK   61  A    between atoms: _147  and  _148
REMARK   62  A    between atoms: _150  and  _152
REMARK   63  A    between atoms: _152  and  _153
REMARK   64  A    between atoms: _152  and  _155
REMARK   65  A    between atoms: _155  and  _156
REMARK   66  A    between atoms: _159  and  _161
REMARK   67  A    between atoms: _161  and  _162
REMARK   68  A    between atoms: _161  and  _164
REMARK   69  A    between atoms: _164  and  _165
REMARK   70  A    between atoms: _170  and  _171
REMARK   71  A    between atoms: _173  and  _175
REMARK   72  A    between atoms: _175  and  _176
REMARK   73  A    between atoms: _175  and  _178
REMARK   74  A    between atoms: _178  and  _179
REMARK   75  A    between atoms: _182  and  _184
REMARK   76  A    between atoms: _184  and  _185
REMARK   77  A    between atoms: _184  and  _187
REMARK   78  A    between atoms: _187  and  _188
REMARK   79  A    between atoms: _194  and  _196
REMARK   80  A    between atoms: _196  and  _197
REMARK   81  A    between atoms: _196  and  _199
REMARK   82  A    between atoms: _199  and  _200
REMARK   83  A    between atoms: _205  and  _206
REMARK   84  A    between atoms: _208  and  _210
REMARK   85  A    between atoms: _210  and  _211
REMARK   86  A    between atoms: _213  and  _215
REMARK   87  A    between atoms: _215  and  _216
REMARK   88  A    between atoms: _218  and  _220
REMARK   89  A    between atoms: _220  and  _221
REMARK   90  A    between atoms: _220  and  _223
REMARK   91  A    between atoms: _223  and  _224
REMARK   92  A    between atoms: _234  and  _236
REMARK   93  A    between atoms: _236  and  _237
REMARK   94  A    between atoms: _236  and  _239
REMARK   95  A    between atoms: _239  and  _240
REMARK   96  A    between atoms: _245  and  _247
REMARK   97  A    between atoms: _247  and  _248
REMARK   98  A    between atoms: _247  and  _250
REMARK   99  A    between atoms: _250  and  _251
REMARK  100  A    between atoms: _251  and  _252
REMARK  101  A    between atoms: _257  and  _259
REMARK  102  A    between atoms: _259  and  _260
REMARK  103  A    between atoms: _263  and  _265
REMARK  104  A    between atoms: _265  and  _266
REMARK  105  A    between atoms: _265  and  _268
REMARK  106  A    between atoms: _268  and  _269
REMARK  107  A    between atoms: _274  and  _275
REMARK  108  A    between atoms: _277  and  _279
REMARK  109  A    between atoms: _279  and  _280
REMARK  110  A    between atoms: _279  and  _282
REMARK  111  A    between atoms: _282  and  _283
REMARK  112  A    between atoms: _286  and  _288
REMARK  113  A    between atoms: _288  and  _289
REMARK  114  A    between atoms: _288  and  _291
REMARK  115  A    between atoms: _291  and  _292
REMARK  116  A    between atoms: _297  and  _298
REMARK  117  A    between atoms: _300  and  _302
REMARK  118  A    between atoms: _302  and  _303
REMARK  119  A    between atoms: _302  and  _305
REMARK  120  A    between atoms: _305  and  _306
REMARK  121  A    between atoms: _306  and  _307
REMARK  122  A    between atoms: _307  and  _308
REMARK  123  A    between atoms: _317  and  _319
REMARK  124  A    between atoms: _319  and  _320
REMARK  125  A    between atoms: _319  and  _322
REMARK  126  A    between atoms: _322  and  _323
REMARK  127  A    between atoms: _323  and  _324
REMARK  128  A    between atoms: _324  and  _325
REMARK  129  A    between atoms: _325  and  _326
REMARK  130  A    between atoms: _330  and  _332
REMARK  131  A    between atoms: _332  and  _333
REMARK  132  A    between atoms: _332  and  _335
REMARK  133  A    between atoms: _335  and  _336
REMARK  134  A    between atoms: _336  and  _337
REMARK  135  A    between atoms: _340  and  _342
REMARK  136  A    between atoms: _342  and  _343
REMARK  137  A    between atoms: _342  and  _345
REMARK  138  A    between atoms: _348  and  _350
REMARK  139  A    between atoms: _350  and  _351
REMARK  140  A    between atoms: _350  and  _353
REMARK  141  A    between atoms: _353  and  _354
REMARK                            x       y       z     vdW  Elec       q    Type
REMARK                         _______ _______ _______ _____ _____    ______ ____
ROOT
ATOM      1  O   HOH     1      -5.508 -18.083   0.099  0.00  0.00    +0.000 OA
ENDROOT
TORSDOF 0
REMARK  Name = ../refined-set-2016/3arr/3arr_pocket.pdb
REMARK  141 active torsions:
REMARK  status: ('A' for Active; 'I' for Inactive)
REMARK    1  A    between atoms: _1  and  _3
REMARK    2  A    between atoms: _3  and  _4
REMARK    3  A    between atoms: _3  and  _6
REMARK    4  A    between atoms: _6  and  _7
REMARK    5  A    between atoms: _17  and  _19
REMARK    6  A    between atoms: _19  and  _20
REMARK    7  A    between atoms: _19  and  _22
REMARK    8  A    between atoms: _22  and  _23
REMARK    9  A    between atoms: _26  and  _28
REMARK   10  A    between atoms: _28  and  _29
REMARK   11  A    between atoms: _28  and  _31
REMARK   12  A    between atoms: _31  and  _32
REMARK   13  A    between atoms: _32  and  _33
REMARK   14  A    between atoms: _36  and  _38
REMARK   15  A    between atoms: _38  and  _39
REMARK   16  A    between atoms: _38  and  _41
REMARK   17  A    between atoms: _41  and  _42
REMARK   18  A    between atoms: _48  and  _50
REMARK   19  A    between atoms: _50  and  _51
REMARK   20  A    between atoms: _53  and  _55
REMARK   21  A    between atoms: _55  and  _56
REMARK   22  A    between atoms: _58  and  _60
REMARK   23  A    between atoms: _60  and  _61
REMARK   24  A    between atoms: _63  and  _65
REMARK   25  A    between atoms: _65  and  _66
REMARK   26  A    between atoms: _69  and  _71
REMARK   27  A    between atoms: _71  and  _72
REMARK   28  A    between atoms: _71  and  _74
REMARK   29  A    between atoms: _74  and  _75
REMARK   30  A    between atoms: _78  and  _80
REMARK   31  A    between atoms: _80  and  _81
REMARK   32  A    between atoms: _83  and  _85
REMARK   33  A    between atoms: _85  and  _86
REMARK   34  A    between atoms: _85  and  _88
REMARK   35  A    between atoms: _91  and  _93
REMARK   36  A    between atoms: _93  and  _94
REMARK   37  A    between atoms: _96  and  _98
REMARK   38  A    between atoms: _98  and  _99
REMARK   39  A    between atoms: _98  and  _101
REMARK   40  A    between atoms: _101  and  _102
REMARK   41  A    between atoms: _107  and  _108
REMARK   42  A    between atoms: _110  and  _112
REMARK   43  A    between atoms: _112  and  _113
REMARK   44  A    between atoms: _112  and  _115
REMARK   45  A    between atoms: _115  and  _116
REMARK   46  A    between atoms: _119  and  _121
REMARK   47  A    between atoms: _121  and  _122
REMARK   48  A    between atoms: _121  and  _124
REMARK   49  A    between atoms: _124  and  _125
REMARK   50  A    between atoms: _125  and  _126
REMARK   51  A    between atoms: _126  and  _127
REMARK   52  A    between atoms: _127  and  _128
REMARK   53  A    between atoms: _132  and  _134
REMARK   54  A    between atoms: _134  and  _135
REMARK   55  A    between atoms: _134  and  _137
REMARK   56  A    between atoms: _137  and  _138
REMARK   57  A    between atoms: _141  and  _143
REMARK   58  A    between atoms: _143  and  _144
REMARK   59  A    between atoms: _143  and  _146
REMARK   60  A    between atoms: _146  and  _147
REMARK   61  A    between atoms: _147  and  _148
REMARK   62  A    between atoms: _150  and  _152
REMARK   63  A    between atoms: _152  and  _153
REMARK   64  A    between atoms: _152  and  _155
REMARK   65  A    between atoms: _155  and  _156
REMARK   66  A    between atoms: _159  and  _161
REMARK   67  A    between atoms: _161  and  _162
REMARK   68  A    between atoms: _161  and  _164
REMARK   69  A    between atoms: _164  and  _165
REMARK   70  A    between atoms: _170  and  _171
REMARK   71  A    between atoms: _173  and  _175
REMARK   72  A    between atoms: _175  and  _176
REMARK   73  A    between atoms: _175  and  _178
REMARK   74  A    between atoms: _178  and  _179
REMARK   75  A    between atoms: _182  and  _184
REMARK   76  A    between atoms: _184  and  _185
REMARK   77  A    between atoms: _184  and  _187
REMARK   78  A    between atoms: _187  and  _188
REMARK   79  A    between atoms: _194  and  _196
REMARK   80  A    between atoms: _196  and  _197
REMARK   81  A    between atoms: _196  and  _199
REMARK   82  A    between atoms: _199  and  _200
REMARK   83  A    between atoms: _205  and  _206
REMARK   84  A    between atoms: _208  and  _210
REMARK   85  A    between atoms: _210  and  _211
REMARK   86  A    between atoms: _213  and  _215
REMARK   87  A    between atoms: _215  and  _216
REMARK   88  A    between atoms: _218  and  _220
REMARK   89  A    between atoms: _220  and  _221
REMARK   90  A    between atoms: _220  and  _223
REMARK   91  A    between atoms: _223  and  _224
REMARK   92  A    between atoms: _234  and  _236
REMARK   93  A    between atoms: _236  and  _237
REMARK   94  A    between atoms: _236  and  _239
REMARK   95  A    between atoms: _239  and  _240
REMARK   96  A    between atoms: _245  and  _247
REMARK   97  A    between atoms: _247  and  _248
REMARK   98  A    between atoms: _247  and  _250
REMARK   99  A    between atoms: _250  and  _251
REMARK  100  A    between atoms: _251  and  _252
REMARK  101  A    between atoms: _257  and  _259
REMARK  102  A    between atoms: _259  and  _260
REMARK  103  A    between atoms: _263  and  _265
REMARK  104  A    between atoms: _265  and  _266
REMARK  105  A    between atoms: _265  and  _268
REMARK  106  A    between atoms: _268  and  _269
REMARK  107  A    between atoms: _274  and  _275
REMARK  108  A    between atoms: _277  and  _279
REMARK  109  A    between atoms: _279  and  _280
REMARK  110  A    between atoms: _279  and  _282
REMARK  111  A    between atoms: _282  and  _283
REMARK  112  A    between atoms: _286  and  _288
REMARK  113  A    between atoms: _288  and  _289
REMARK  114  A    between atoms: _288  and  _291
REMARK  115  A    between atoms: _291  and  _292
REMARK  116  A    between atoms: _297  and  _298
REMARK  117  A    between atoms: _300  and  _302
REMARK  118  A    between atoms: _302  and  _303
REMARK  119  A    between atoms: _302  and  _305
REMARK  120  A    between atoms: _305  and  _306
REMARK  121  A    between atoms: _306  and  _307
REMARK  122  A    between atoms: _307  and  _308
REMARK  123  A    between atoms: _317  and  _319
REMARK  124  A    between atoms: _319  and  _320
REMARK  125  A    between atoms: _319  and  _322
REMARK  126  A    between atoms: _322  and  _323
REMARK  127  A    between atoms: _323  and  _324
REMARK  128  A    between atoms: _324  and  _325
REMARK  129  A    between atoms: _325  and  _326
REMARK  130  A    between atoms: _330  and  _332
REMARK  131  A    between atoms: _332  and  _333
REMARK  132  A    between atoms: _332  and  _335
REMARK  133  A    between atoms: _335  and  _336
REMARK  134  A    between atoms: _336  and  _337
REMARK  135  A    between atoms: _340  and  _342
REMARK  136  A    between atoms: _342  and  _343
REMARK  137  A    between atoms: _342  and  _345
REMARK  138  A    between atoms: _348  and  _350
REMARK  139  A    between atoms: _350  and  _351
REMARK  140  A    between atoms: _350  and  _353
REMARK  141  A    between atoms: _353  and  _354
REMARK                            x       y       z     vdW  Elec       q    Type
REMARK                         _______ _______ _______ _____ _____    ______ ____
ROOT
ATOM      1  O   HOH     1       0.351 -12.184   4.157  0.00  0.00    +0.000 OA
ENDROOT
TORSDOF 0
REMARK  Name = ../refined-set-2016/3arr/3arr_pocket.pdb
REMARK  141 active torsions:
REMARK  status: ('A' for Active; 'I' for Inactive)
REMARK    1  A    between atoms: _1  and  _3
REMARK    2  A    between atoms: _3  and  _4
REMARK    3  A    between atoms: _3  and  _6
REMARK    4  A    between atoms: _6  and  _7
REMARK    5  A    between atoms: _17  and  _19
REMARK    6  A    between atoms: _19  and  _20
REMARK    7  A    between atoms: _19  and  _22
REMARK    8  A    between atoms: _22  and  _23
REMARK    9  A    between atoms: _26  and  _28
REMARK   10  A    between atoms: _28  and  _29
REMARK   11  A    between atoms: _28  and  _31
REMARK   12  A    between atoms: _31  and  _32
REMARK   13  A    between atoms: _32  and  _33
REMARK   14  A    between atoms: _36  and  _38
REMARK   15  A    between atoms: _38  and  _39
REMARK   16  A    between atoms: _38  and  _41
REMARK   17  A    between atoms: _41  and  _42
REMARK   18  A    between atoms: _48  and  _50
REMARK   19  A    between atoms: _50  and  _51
REMARK   20  A    between atoms: _53  and  _55
REMARK   21  A    between atoms: _55  and  _56
REMARK   22  A    between atoms: _58  and  _60
REMARK   23  A    between atoms: _60  and  _61
REMARK   24  A    between atoms: _63  and  _65
REMARK   25  A    between atoms: _65  and  _66
REMARK   26  A    between atoms: _69  and  _71
REMARK   27  A    between atoms: _71  and  _72
REMARK   28  A    between atoms: _71  and  _74
REMARK   29  A    between atoms: _74  and  _75
REMARK   30  A    between atoms: _78  and  _80
REMARK   31  A    between atoms: _80  and  _81
REMARK   32  A    between atoms: _83  and  _85
REMARK   33  A    between atoms: _85  and  _86
REMARK   34  A    between atoms: _85  and  _88
REMARK   35  A    between atoms: _91  and  _93
REMARK   36  A    between atoms: _93  and  _94
REMARK   37  A    between atoms: _96  and  _98
REMARK   38  A    between atoms: _98  and  _99
REMARK   39  A    between atoms: _98  and  _101
REMARK   40  A    between atoms: _101  and  _102
REMARK   41  A    between atoms: _107  and  _108
REMARK   42  A    between atoms: _110  and  _112
REMARK   43  A    between atoms: _112  and  _113
REMARK   44  A    between atoms: _112  and  _115
REMARK   45  A    between atoms: _115  and  _116
REMARK   46  A    between atoms: _119  and  _121
REMARK   47  A    between atoms: _121  and  _122
REMARK   48  A    between atoms: _121  and  _124
REMARK   49  A    between atoms: _124  and  _125
REMARK   50  A    between atoms: _125  and  _126
REMARK   51  A    between atoms: _126  and  _127
REMARK   52  A    between atoms: _127  and  _128
REMARK   53  A    between atoms: _132  and  _134
REMARK   54  A    between atoms: _134  and  _135
REMARK   55  A    between atoms: _134  and  _137
REMARK   56  A    between atoms: _137  and  _138
REMARK   57  A    between atoms: _141  and  _143
REMARK   58  A    between atoms: _143  and  _144
REMARK   59  A    between atoms: _143  and  _146
REMARK   60  A    between atoms: _146  and  _147
REMARK   61  A    between atoms: _147  and  _148
REMARK   62  A    between atoms: _150  and  _152
REMARK   63  A    between atoms: _152  and  _153
REMARK   64  A    between atoms: _152  and  _155
REMARK   65  A    between atoms: _155  and  _156
REMARK   66  A    between atoms: _159  and  _161
REMARK   67  A    between atoms: _161  and  _162
REMARK   68  A    between atoms: _161  and  _164
REMARK   69  A    between atoms: _164  and  _165
REMARK   70  A    between atoms: _170  and  _171
REMARK   71  A    between atoms: _173  and  _175
REMARK   72  A    between atoms: _175  and  _176
REMARK   73  A    between atoms: _175  and  _178
REMARK   74  A    between atoms: _178  and  _179
REMARK   75  A    between atoms: _182  and  _184
REMARK   76  A    between atoms: _184  and  _185
REMARK   77  A    between atoms: _184  and  _187
REMARK   78  A    between atoms: _187  and  _188
REMARK   79  A    between atoms: _194  and  _196
REMARK   80  A    between atoms: _196  and  _197
REMARK   81  A    between atoms: _196  and  _199
REMARK   82  A    between atoms: _199  and  _200
REMARK   83  A    between atoms: _205  and  _206
REMARK   84  A    between atoms: _208  and  _210
REMARK   85  A    between atoms: _210  and  _211
REMARK   86  A    between atoms: _213  and  _215
REMARK   87  A    between atoms: _215  and  _216
REMARK   88  A    between atoms: _218  and  _220
REMARK   89  A    between atoms: _220  and  _221
REMARK   90  A    between atoms: _220  and  _223
REMARK   91  A    between atoms: _223  and  _224
REMARK   92  A    between atoms: _234  and  _236
REMARK   93  A    between atoms: _236  and  _237
REMARK   94  A    between atoms: _236  and  _239
REMARK   95  A    between atoms: _239  and  _240
REMARK   96  A    between atoms: _245  and  _247
REMARK   97  A    between atoms: _247  and  _248
REMARK   98  A    between atoms: _247  and  _250
REMARK   99  A    between atoms: _250  and  _251
REMARK  100  A    between atoms: _251  and  _252
REMARK  101  A    between atoms: _257  and  _259
REMARK  102  A    between atoms: _259  and  _260
REMARK  103  A    between atoms: _263  and  _265
REMARK  104  A    between atoms: _265  and  _266
REMARK  105  A    between atoms: _265  and  _268
REMARK  106  A    between atoms: _268  and  _269
REMARK  107  A    between atoms: _274  and  _275
REMARK  108  A    between atoms: _277  and  _279
REMARK  109  A    between atoms: _279  and  _280
REMARK  110  A    between atoms: _279  and  _282
REMARK  111  A    between atoms: _282  and  _283
REMARK  112  A    between atoms: _286  and  _288
REMARK  113  A    between atoms: _288  and  _289
REMARK  114  A    between atoms: _288  and  _291
REMARK  115  A    between atoms: _291  and  _292
REMARK  116  A    between atoms: _297  and  _298
REMARK  117  A    between atoms: _300  and  _302
REMARK  118  A    between atoms: _302  and  _303
REMARK  119  A    between atoms: _302  and  _305
REMARK  120  A    between atoms: _305  and  _306
REMARK  121  A    between atoms: _306  and  _307
REMARK  122  A    between atoms: _307  and  _308
REMARK  123  A    between atoms: _317  and  _319
REMARK  124  A    between atoms: _319  and  _320
REMARK  125  A    between atoms: _319  and  _322
REMARK  126  A    between atoms: _322  and  _323
REMARK  127  A    between atoms: _323  and  _324
REMARK  128  A    between atoms: _324  and  _325
REMARK  129  A    between atoms: _325  and  _326
REMARK  130  A    between atoms: _330  and  _332
REMARK  131  A    between atoms: _332  and  _333
REMARK  132  A    between atoms: _332  and  _335
REMARK  133  A    between atoms: _335  and  _336
REMARK  134  A    between atoms: _336  and  _337
REMARK  135  A    between atoms: _340  and  _342
REMARK  136  A    between atoms: _342  and  _343
REMARK  137  A    between atoms: _342  and  _345
REMARK  138  A    between atoms: _348  and  _350
REMARK  139  A    between atoms: _350  and  _351
REMARK  140  A    between atoms: _350  and  _353
REMARK  141  A    between atoms: _353  and  _354
REMARK                            x       y       z     vdW  Elec       q    Type
REMARK                         _______ _______ _______ _____ _____    ______ ____
ROOT
ATOM      1  O   HOH     1       2.468 -12.646   3.606  0.00  0.00    +0.000 OA
ENDROOT
TORSDOF 0
REMARK  Name = ../refined-set-2016/3arr/3arr_pocket.pdb
REMARK  141 active torsions:
REMARK  status: ('A' for Active; 'I' for Inactive)
REMARK    1  A    between atoms: _1  and  _3
REMARK    2  A    between atoms: _3  and  _4
REMARK    3  A    between atoms: _3  and  _6
REMARK    4  A    between atoms: _6  and  _7
REMARK    5  A    between atoms: _17  and  _19
REMARK    6  A    between atoms: _19  and  _20
REMARK    7  A    between atoms: _19  and  _22
REMARK    8  A    between atoms: _22  and  _23
REMARK    9  A    between atoms: _26  and  _28
REMARK   10  A    between atoms: _28  and  _29
REMARK   11  A    between atoms: _28  and  _31
REMARK   12  A    between atoms: _31  and  _32
REMARK   13  A    between atoms: _32  and  _33
REMARK   14  A    between atoms: _36  and  _38
REMARK   15  A    between atoms: _38  and  _39
REMARK   16  A    between atoms: _38  and  _41
REMARK   17  A    between atoms: _41  and  _42
REMARK   18  A    between atoms: _48  and  _50
REMARK   19  A    between atoms: _50  and  _51
REMARK   20  A    between atoms: _53  and  _55
REMARK   21  A    between atoms: _55  and  _56
REMARK   22  A    between atoms: _58  and  _60
REMARK   23  A    between atoms: _60  and  _61
REMARK   24  A    between atoms: _63  and  _65
REMARK   25  A    between atoms: _65  and  _66
REMARK   26  A    between atoms: _69  and  _71
REMARK   27  A    between atoms: _71  and  _72
REMARK   28  A    between atoms: _71  and  _74
REMARK   29  A    between atoms: _74  and  _75
REMARK   30  A    between atoms: _78  and  _80
REMARK   31  A    between atoms: _80  and  _81
REMARK   32  A    between atoms: _83  and  _85
REMARK   33  A    between atoms: _85  and  _86
REMARK   34  A    between atoms: _85  and  _88
REMARK   35  A    between atoms: _91  and  _93
REMARK   36  A    between atoms: _93  and  _94
REMARK   37  A    between atoms: _96  and  _98
REMARK   38  A    between atoms: _98  and  _99
REMARK   39  A    between atoms: _98  and  _101
REMARK   40  A    between atoms: _101  and  _102
REMARK   41  A    between atoms: _107  and  _108
REMARK   42  A    between atoms: _110  and  _112
REMARK   43  A    between atoms: _112  and  _113
REMARK   44  A    between atoms: _112  and  _115
REMARK   45  A    between atoms: _115  and  _116
REMARK   46  A    between atoms: _119  and  _121
REMARK   47  A    between atoms: _121  and  _122
REMARK   48  A    between atoms: _121  and  _124
REMARK   49  A    between atoms: _124  and  _125
REMARK   50  A    between atoms: _125  and  _126
REMARK   51  A    between atoms: _126  and  _127
REMARK   52  A    between atoms: _127  and  _128
REMARK   53  A    between atoms: _132  and  _134
REMARK   54  A    between atoms: _134  and  _135
REMARK   55  A    between atoms: _134  and  _137
REMARK   56  A    between atoms: _137  and  _138
REMARK   57  A    between atoms: _141  and  _143
REMARK   58  A    between atoms: _143  and  _144
REMARK   59  A    between atoms: _143  and  _146
REMARK   60  A    between atoms: _146  and  _147
REMARK   61  A    between atoms: _147  and  _148
REMARK   62  A    between atoms: _150  and  _152
REMARK   63  A    between atoms: _152  and  _153
REMARK   64  A    between atoms: _152  and  _155
REMARK   65  A    between atoms: _155  and  _156
REMARK   66  A    between atoms: _159  and  _161
REMARK   67  A    between atoms: _161  and  _162
REMARK   68  A    between atoms: _161  and  _164
REMARK   69  A    between atoms: _164  and  _165
REMARK   70  A    between atoms: _170  and  _171
REMARK   71  A    between atoms: _173  and  _175
REMARK   72  A    between atoms: _175  and  _176
REMARK   73  A    between atoms: _175  and  _178
REMARK   74  A    between atoms: _178  and  _179
REMARK   75  A    between atoms: _182  and  _184
REMARK   76  A    between atoms: _184  and  _185
REMARK   77  A    between atoms: _184  and  _187
REMARK   78  A    between atoms: _187  and  _188
REMARK   79  A    between atoms: _194  and  _196
REMARK   80  A    between atoms: _196  and  _197
REMARK   81  A    between atoms: _196  and  _199
REMARK   82  A    between atoms: _199  and  _200
REMARK   83  A    between atoms: _205  and  _206
REMARK   84  A    between atoms: _208  and  _210
REMARK   85  A    between atoms: _210  and  _211
REMARK   86  A    between atoms: _213  and  _215
REMARK   87  A    between atoms: _215  and  _216
REMARK   88  A    between atoms: _218  and  _220
REMARK   89  A    between atoms: _220  and  _221
REMARK   90  A    between atoms: _220  and  _223
REMARK   91  A    between atoms: _223  and  _224
REMARK   92  A    between atoms: _234  and  _236
REMARK   93  A    between atoms: _236  and  _237
REMARK   94  A    between atoms: _236  and  _239
REMARK   95  A    between atoms: _239  and  _240
REMARK   96  A    between atoms: _245  and  _247
REMARK   97  A    between atoms: _247  and  _248
REMARK   98  A    between atoms: _247  and  _250
REMARK   99  A    between atoms: _250  and  _251
REMARK  100  A    between atoms: _251  and  _252
REMARK  101  A    between atoms: _257  and  _259
REMARK  102  A    between atoms: _259  and  _260
REMARK  103  A    between atoms: _263  and  _265
REMARK  104  A    between atoms: _265  and  _266
REMARK  105  A    between atoms: _265  and  _268
REMARK  106  A    between atoms: _268  and  _269
REMARK  107  A    between atoms: _274  and  _275
REMARK  108  A    between atoms: _277  and  _279
REMARK  109  A    between atoms: _279  and  _280
REMARK  110  A    between atoms: _279  and  _282
REMARK  111  A    between atoms: _282  and  _283
REMARK  112  A    between atoms: _286  and  _288
REMARK  113  A    between atoms: _288  and  _289
REMARK  114  A    between atoms: _288  and  _291
REMARK  115  A    between atoms: _291  and  _292
REMARK  116  A    between atoms: _297  and  _298
REMARK  117  A    between atoms: _300  and  _302
REMARK  118  A    between atoms: _302  and  _303
REMARK  119  A    between atoms: _302  and  _305
REMARK  120  A    between atoms: _305  and  _306
REMARK  121  A    between atoms: _306  and  _307
REMARK  122  A    between atoms: _307  and  _308
REMARK  123  A    between atoms: _317  and  _319
REMARK  124  A    between atoms: _319  and  _320
REMARK  125  A    between atoms: _319  and  _322
REMARK  126  A    between atoms: _322  and  _323
REMARK  127  A    between atoms: _323  and  _324
REMARK  128  A    between atoms: _324  and  _325
REMARK  129  A    between atoms: _325  and  _326
REMARK  130  A    between atoms: _330  and  _332
REMARK  131  A    between atoms: _332  and  _333
REMARK  132  A    between atoms: _332  and  _335
REMARK  133  A    between atoms: _335  and  _336
REMARK  134  A    between atoms: _336  and  _337
REMARK  135  A    between atoms: _340  and  _342
REMARK  136  A    between atoms: _342  and  _343
REMARK  137  A    between atoms: _342  and  _345
REMARK  138  A    between atoms: _348  and  _350
REMARK  139  A    between atoms: _350  and  _351
REMARK  140  A    between atoms: _350  and  _353
REMARK  141  A    between atoms: _353  and  _354
REMARK                            x       y       z     vdW  Elec       q    Type
REMARK                         _______ _______ _______ _____ _____    ______ ____
ROOT
ATOM      1  O   HOH     1     -13.404 -15.207  -2.729  0.00  0.00    +0.000 OA
ENDROOT
TORSDOF 0
REMARK  Name = ../refined-set-2016/3arr/3arr_pocket.pdb
REMARK  141 active torsions:
REMARK  status: ('A' for Active; 'I' for Inactive)
REMARK    1  A    between atoms: _1  and  _3
REMARK    2  A    between atoms: _3  and  _4
REMARK    3  A    between atoms: _3  and  _6
REMARK    4  A    between atoms: _6  and  _7
REMARK    5  A    between atoms: _17  and  _19
REMARK    6  A    between atoms: _19  and  _20
REMARK    7  A    between atoms: _19  and  _22
REMARK    8  A    between atoms: _22  and  _23
REMARK    9  A    between atoms: _26  and  _28
REMARK   10  A    between atoms: _28  and  _29
REMARK   11  A    between atoms: _28  and  _31
REMARK   12  A    between atoms: _31  and  _32
REMARK   13  A    between atoms: _32  and  _33
REMARK   14  A    between atoms: _36  and  _38
REMARK   15  A    between atoms: _38  and  _39
REMARK   16  A    between atoms: _38  and  _41
REMARK   17  A    between atoms: _41  and  _42
REMARK   18  A    between atoms: _48  and  _50
REMARK   19  A    between atoms: _50  and  _51
REMARK   20  A    between atoms: _53  and  _55
REMARK   21  A    between atoms: _55  and  _56
REMARK   22  A    between atoms: _58  and  _60
REMARK   23  A    between atoms: _60  and  _61
REMARK   24  A    between atoms: _63  and  _65
REMARK   25  A    between atoms: _65  and  _66
REMARK   26  A    between atoms: _69  and  _71
REMARK   27  A    between atoms: _71  and  _72
REMARK   28  A    between atoms: _71  and  _74
REMARK   29  A    between atoms: _74  and  _75
REMARK   30  A    between atoms: _78  and  _80
REMARK   31  A    between atoms: _80  and  _81
REMARK   32  A    between atoms: _83  and  _85
REMARK   33  A    between atoms: _85  and  _86
REMARK   34  A    between atoms: _85  and  _88
REMARK   35  A    between atoms: _91  and  _93
REMARK   36  A    between atoms: _93  and  _94
REMARK   37  A    between atoms: _96  and  _98
REMARK   38  A    between atoms: _98  and  _99
REMARK   39  A    between atoms: _98  and  _101
REMARK   40  A    between atoms: _101  and  _102
REMARK   41  A    between atoms: _107  and  _108
REMARK   42  A    between atoms: _110  and  _112
REMARK   43  A    between atoms: _112  and  _113
REMARK   44  A    between atoms: _112  and  _115
REMARK   45  A    between atoms: _115  and  _116
REMARK   46  A    between atoms: _119  and  _121
REMARK   47  A    between atoms: _121  and  _122
REMARK   48  A    between atoms: _121  and  _124
REMARK   49  A    between atoms: _124  and  _125
REMARK   50  A    between atoms: _125  and  _126
REMARK   51  A    between atoms: _126  and  _127
REMARK   52  A    between atoms: _127  and  _128
REMARK   53  A    between atoms: _132  and  _134
REMARK   54  A    between atoms: _134  and  _135
REMARK   55  A    between atoms: _134  and  _137
REMARK   56  A    between atoms: _137  and  _138
REMARK   57  A    between atoms: _141  and  _143
REMARK   58  A    between atoms: _143  and  _144
REMARK   59  A    between atoms: _143  and  _146
REMARK   60  A    between atoms: _146  and  _147
REMARK   61  A    between atoms: _147  and  _148
REMARK   62  A    between atoms: _150  and  _152
REMARK   63  A    between atoms: _152  and  _153
REMARK   64  A    between atoms: _152  and  _155
REMARK   65  A    between atoms: _155  and  _156
REMARK   66  A    between atoms: _159  and  _161
REMARK   67  A    between atoms: _161  and  _162
REMARK   68  A    between atoms: _161  and  _164
REMARK   69  A    between atoms: _164  and  _165
REMARK   70  A    between atoms: _170  and  _171
REMARK   71  A    between atoms: _173  and  _175
REMARK   72  A    between atoms: _175  and  _176
REMARK   73  A    between atoms: _175  and  _178
REMARK   74  A    between atoms: _178  and  _179
REMARK   75  A    between atoms: _182  and  _184
REMARK   76  A    between atoms: _184  and  _185
REMARK   77  A    between atoms: _184  and  _187
REMARK   78  A    between atoms: _187  and  _188
REMARK   79  A    between atoms: _194  and  _196
REMARK   80  A    between atoms: _196  and  _197
REMARK   81  A    between atoms: _196  and  _199
REMARK   82  A    between atoms: _199  and  _200
REMARK   83  A    between atoms: _205  and  _206
REMARK   84  A    between atoms: _208  and  _210
REMARK   85  A    between atoms: _210  and  _211
REMARK   86  A    between atoms: _213  and  _215
REMARK   87  A    between atoms: _215  and  _216
REMARK   88  A    between atoms: _218  and  _220
REMARK   89  A    between atoms: _220  and  _221
REMARK   90  A    between atoms: _220  and  _223
REMARK   91  A    between atoms: _223  and  _224
REMARK   92  A    between atoms: _234  and  _236
REMARK   93  A    between atoms: _236  and  _237
REMARK   94  A    between atoms: _236  and  _239
REMARK   95  A    between atoms: _239  and  _240
REMARK   96  A    between atoms: _245  and  _247
REMARK   97  A    between atoms: _247  and  _248
REMARK   98  A    between atoms: _247  and  _250
REMARK   99  A    between atoms: _250  and  _251
REMARK  100  A    between atoms: _251  and  _252
REMARK  101  A    between atoms: _257  and  _259
REMARK  102  A    between atoms: _259  and  _260
REMARK  103  A    between atoms: _263  and  _265
REMARK  104  A    between atoms: _265  and  _266
REMARK  105  A    between atoms: _265  and  _268
REMARK  106  A    between atoms: _268  and  _269
REMARK  107  A    between atoms: _274  and  _275
REMARK  108  A    between atoms: _277  and  _279
REMARK  109  A    between atoms: _279  and  _280
REMARK  110  A    between atoms: _279  and  _282
REMARK  111  A    between atoms: _282  and  _283
REMARK  112  A    between atoms: _286  and  _288
REMARK  113  A    between atoms: _288  and  _289
REMARK  114  A    between atoms: _288  and  _291
REMARK  115  A    between atoms: _291  and  _292
REMARK  116  A    between atoms: _297  and  _298
REMARK  117  A    between atoms: _300  and  _302
REMARK  118  A    between atoms: _302  and  _303
REMARK  119  A    between atoms: _302  and  _305
REMARK  120  A    between atoms: _305  and  _306
REMARK  121  A    between atoms: _306  and  _307
REMARK  122  A    between atoms: _307  and  _308
REMARK  123  A    between atoms: _317  and  _319
REMARK  124  A    between atoms: _319  and  _320
REMARK  125  A    between atoms: _319  and  _322
REMARK  126  A    between atoms: _322  and  _323
REMARK  127  A    between atoms: _323  and  _324
REMARK  128  A    between atoms: _324  and  _325
REMARK  129  A    between atoms: _325  and  _326
REMARK  130  A    between atoms: _330  and  _332
REMARK  131  A    between atoms: _332  and  _333
REMARK  132  A    between atoms: _332  and  _335
REMARK  133  A    between atoms: _335  and  _336
REMARK  134  A    between atoms: _336  and  _337
REMARK  135  A    between atoms: _340  and  _342
REMARK  136  A    between atoms: _342  and  _343
REMARK  137  A    between atoms: _342  and  _345
REMARK  138  A    between atoms: _348  and  _350
REMARK  139  A    between atoms: _350  and  _351
REMARK  140  A    between atoms: _350  and  _353
REMARK  141  A    between atoms: _353  and  _354
REMARK                            x       y       z     vdW  Elec       q    Type
REMARK                         _______ _______ _______ _____ _____    ______ ____
ROOT
ATOM      1  O   HOH     1      -7.331 -18.871   5.530  0.00  0.00    +0.000 OA
ENDROOT
TORSDOF 0
REMARK  Name = ../refined-set-2016/3arr/3arr_pocket.pdb
REMARK  141 active torsions:
REMARK  status: ('A' for Active; 'I' for Inactive)
REMARK    1  A    between atoms: _1  and  _3
REMARK    2  A    between atoms: _3  and  _4
REMARK    3  A    between atoms: _3  and  _6
REMARK    4  A    between atoms: _6  and  _7
REMARK    5  A    between atoms: _17  and  _19
REMARK    6  A    between atoms: _19  and  _20
REMARK    7  A    between atoms: _19  and  _22
REMARK    8  A    between atoms: _22  and  _23
REMARK    9  A    between atoms: _26  and  _28
REMARK   10  A    between atoms: _28  and  _29
REMARK   11  A    between atoms: _28  and  _31
REMARK   12  A    between atoms: _31  and  _32
REMARK   13  A    between atoms: _32  and  _33
REMARK   14  A    between atoms: _36  and  _38
REMARK   15  A    between atoms: _38  and  _39
REMARK   16  A    between atoms: _38  and  _41
REMARK   17  A    between atoms: _41  and  _42
REMARK   18  A    between atoms: _48  and  _50
REMARK   19  A    between atoms: _50  and  _51
REMARK   20  A    between atoms: _53  and  _55
REMARK   21  A    between atoms: _55  and  _56
REMARK   22  A    between atoms: _58  and  _60
REMARK   23  A    between atoms: _60  and  _61
REMARK   24  A    between atoms: _63  and  _65
REMARK   25  A    between atoms: _65  and  _66
REMARK   26  A    between atoms: _69  and  _71
REMARK   27  A    between atoms: _71  and  _72
REMARK   28  A    between atoms: _71  and  _74
REMARK   29  A    between atoms: _74  and  _75
REMARK   30  A    between atoms: _78  and  _80
REMARK   31  A    between atoms: _80  and  _81
REMARK   32  A    between atoms: _83  and  _85
REMARK   33  A    between atoms: _85  and  _86
REMARK   34  A    between atoms: _85  and  _88
REMARK   35  A    between atoms: _91  and  _93
REMARK   36  A    between atoms: _93  and  _94
REMARK   37  A    between atoms: _96  and  _98
REMARK   38  A    between atoms: _98  and  _99
REMARK   39  A    between atoms: _98  and  _101
REMARK   40  A    between atoms: _101  and  _102
REMARK   41  A    between atoms: _107  and  _108
REMARK   42  A    between atoms: _110  and  _112
REMARK   43  A    between atoms: _112  and  _113
REMARK   44  A    between atoms: _112  and  _115
REMARK   45  A    between atoms: _115  and  _116
REMARK   46  A    between atoms: _119  and  _121
REMARK   47  A    between atoms: _121  and  _122
REMARK   48  A    between atoms: _121  and  _124
REMARK   49  A    between atoms: _124  and  _125
REMARK   50  A    between atoms: _125  and  _126
REMARK   51  A    between atoms: _126  and  _127
REMARK   52  A    between atoms: _127  and  _128
REMARK   53  A    between atoms: _132  and  _134
REMARK   54  A    between atoms: _134  and  _135
REMARK   55  A    between atoms: _134  and  _137
REMARK   56  A    between atoms: _137  and  _138
REMARK   57  A    between atoms: _141  and  _143
REMARK   58  A    between atoms: _143  and  _144
REMARK   59  A    between atoms: _143  and  _146
REMARK   60  A    between atoms: _146  and  _147
REMARK   61  A    between atoms: _147  and  _148
REMARK   62  A    between atoms: _150  and  _152
REMARK   63  A    between atoms: _152  and  _153
REMARK   64  A    between atoms: _152  and  _155
REMARK   65  A    between atoms: _155  and  _156
REMARK   66  A    between atoms: _159  and  _161
REMARK   67  A    between atoms: _161  and  _162
REMARK   68  A    between atoms: _161  and  _164
REMARK   69  A    between atoms: _164  and  _165
REMARK   70  A    between atoms: _170  and  _171
REMARK   71  A    between atoms: _173  and  _175
REMARK   72  A    between atoms: _175  and  _176
REMARK   73  A    between atoms: _175  and  _178
REMARK   74  A    between atoms: _178  and  _179
REMARK   75  A    between atoms: _182  and  _184
REMARK   76  A    between atoms: _184  and  _185
REMARK   77  A    between atoms: _184  and  _187
REMARK   78  A    between atoms: _187  and  _188
REMARK   79  A    between atoms: _194  and  _196
REMARK   80  A    between atoms: _196  and  _197
REMARK   81  A    between atoms: _196  and  _199
REMARK   82  A    between atoms: _199  and  _200
REMARK   83  A    between atoms: _205  and  _206
REMARK   84  A    between atoms: _208  and  _210
REMARK   85  A    between atoms: _210  and  _211
REMARK   86  A    between atoms: _213  and  _215
REMARK   87  A    between atoms: _215  and  _216
REMARK   88  A    between atoms: _218  and  _220
REMARK   89  A    between atoms: _220  and  _221
REMARK   90  A    between atoms: _220  and  _223
REMARK   91  A    between atoms: _223  and  _224
REMARK   92  A    between atoms: _234  and  _236
REMARK   93  A    between atoms: _236  and  _237
REMARK   94  A    between atoms: _236  and  _239
REMARK   95  A    between atoms: _239  and  _240
REMARK   96  A    between atoms: _245  and  _247
REMARK   97  A    between atoms: _247  and  _248
REMARK   98  A    between atoms: _247  and  _250
REMARK   99  A    between atoms: _250  and  _251
REMARK  100  A    between atoms: _251  and  _252
REMARK  101  A    between atoms: _257  and  _259
REMARK  102  A    between atoms: _259  and  _260
REMARK  103  A    between atoms: _263  and  _265
REMARK  104  A    between atoms: _265  and  _266
REMARK  105  A    between atoms: _265  and  _268
REMARK  106  A    between atoms: _268  and  _269
REMARK  107  A    between atoms: _274  and  _275
REMARK  108  A    between atoms: _277  and  _279
REMARK  109  A    between atoms: _279  and  _280
REMARK  110  A    between atoms: _279  and  _282
REMARK  111  A    between atoms: _282  and  _283
REMARK  112  A    between atoms: _286  and  _288
REMARK  113  A    between atoms: _288  and  _289
REMARK  114  A    between atoms: _288  and  _291
REMARK  115  A    between atoms: _291  and  _292
REMARK  116  A    between atoms: _297  and  _298
REMARK  117  A    between atoms: _300  and  _302
REMARK  118  A    between atoms: _302  and  _303
REMARK  119  A    between atoms: _302  and  _305
REMARK  120  A    between atoms: _305  and  _306
REMARK  121  A    between atoms: _306  and  _307
REMARK  122  A    between atoms: _307  and  _308
REMARK  123  A    between atoms: _317  and  _319
REMARK  124  A    between atoms: _319  and  _320
REMARK  125  A    between atoms: _319  and  _322
REMARK  126  A    between atoms: _322  and  _323
REMARK  127  A    between atoms: _323  and  _324
REMARK  128  A    between atoms: _324  and  _325
REMARK  129  A    between atoms: _325  and  _326
REMARK  130  A    between atoms: _330  and  _332
REMARK  131  A    between atoms: _332  and  _333
REMARK  132  A    between atoms: _332  and  _335
REMARK  133  A    between atoms: _335  and  _336
REMARK  134  A    between atoms: _336  and  _337
REMARK  135  A    between atoms: _340  and  _342
REMARK  136  A    between atoms: _342  and  _343
REMARK  137  A    between atoms: _342  and  _345
REMARK  138  A    between atoms: _348  and  _350
REMARK  139  A    between atoms: _350  and  _351
REMARK  140  A    between atoms: _350  and  _353
REMARK  141  A    between atoms: _353  and  _354
REMARK                            x       y       z     vdW  Elec       q    Type
REMARK                         _______ _______ _______ _____ _____    ______ ____
ROOT
ATOM      1  O   HOH     1      -3.344 -17.667  -1.151  0.00  0.00    +0.000 OA
ENDROOT
TORSDOF 0
REMARK  Name = ../refined-set-2016/3arr/3arr_pocket.pdb
REMARK  141 active torsions:
REMARK  status: ('A' for Active; 'I' for Inactive)
REMARK    1  A    between atoms: _1  and  _3
REMARK    2  A    between atoms: _3  and  _4
REMARK    3  A    between atoms: _3  and  _6
REMARK    4  A    between atoms: _6  and  _7
REMARK    5  A    between atoms: _17  and  _19
REMARK    6  A    between atoms: _19  and  _20
REMARK    7  A    between atoms: _19  and  _22
REMARK    8  A    between atoms: _22  and  _23
REMARK    9  A    between atoms: _26  and  _28
REMARK   10  A    between atoms: _28  and  _29
REMARK   11  A    between atoms: _28  and  _31
REMARK   12  A    between atoms: _31  and  _32
REMARK   13  A    between atoms: _32  and  _33
REMARK   14  A    between atoms: _36  and  _38
REMARK   15  A    between atoms: _38  and  _39
REMARK   16  A    between atoms: _38  and  _41
REMARK   17  A    between atoms: _41  and  _42
REMARK   18  A    between atoms: _48  and  _50
REMARK   19  A    between atoms: _50  and  _51
REMARK   20  A    between atoms: _53  and  _55
REMARK   21  A    between atoms: _55  and  _56
REMARK   22  A    between atoms: _58  and  _60
REMARK   23  A    between atoms: _60  and  _61
REMARK   24  A    between atoms: _63  and  _65
REMARK   25  A    between atoms: _65  and  _66
REMARK   26  A    between atoms: _69  and  _71
REMARK   27  A    between atoms: _71  and  _72
REMARK   28  A    between atoms: _71  and  _74
REMARK   29  A    between atoms: _74  and  _75
REMARK   30  A    between atoms: _78  and  _80
REMARK   31  A    between atoms: _80  and  _81
REMARK   32  A    between atoms: _83  and  _85
REMARK   33  A    between atoms: _85  and  _86
REMARK   34  A    between atoms: _85  and  _88
REMARK   35  A    between atoms: _91  and  _93
REMARK   36  A    between atoms: _93  and  _94
REMARK   37  A    between atoms: _96  and  _98
REMARK   38  A    between atoms: _98  and  _99
REMARK   39  A    between atoms: _98  and  _101
REMARK   40  A    between atoms: _101  and  _102
REMARK   41  A    between atoms: _107  and  _108
REMARK   42  A    between atoms: _110  and  _112
REMARK   43  A    between atoms: _112  and  _113
REMARK   44  A    between atoms: _112  and  _115
REMARK   45  A    between atoms: _115  and  _116
REMARK   46  A    between atoms: _119  and  _121
REMARK   47  A    between atoms: _121  and  _122
REMARK   48  A    between atoms: _121  and  _124
REMARK   49  A    between atoms: _124  and  _125
REMARK   50  A    between atoms: _125  and  _126
REMARK   51  A    between atoms: _126  and  _127
REMARK   52  A    between atoms: _127  and  _128
REMARK   53  A    between atoms: _132  and  _134
REMARK   54  A    between atoms: _134  and  _135
REMARK   55  A    between atoms: _134  and  _137
REMARK   56  A    between atoms: _137  and  _138
REMARK   57  A    between atoms: _141  and  _143
REMARK   58  A    between atoms: _143  and  _144
REMARK   59  A    between atoms: _143  and  _146
REMARK   60  A    between atoms: _146  and  _147
REMARK   61  A    between atoms: _147  and  _148
REMARK   62  A    between atoms: _150  and  _152
REMARK   63  A    between atoms: _152  and  _153
REMARK   64  A    between atoms: _152  and  _155
REMARK   65  A    between atoms: _155  and  _156
REMARK   66  A    between atoms: _159  and  _161
REMARK   67  A    between atoms: _161  and  _162
REMARK   68  A    between atoms: _161  and  _164
REMARK   69  A    between atoms: _164  and  _165
REMARK   70  A    between atoms: _170  and  _171
REMARK   71  A    between atoms: _173  and  _175
REMARK   72  A    between atoms: _175  and  _176
REMARK   73  A    between atoms: _175  and  _178
REMARK   74  A    between atoms: _178  and  _179
REMARK   75  A    between atoms: _182  and  _184
REMARK   76  A    between atoms: _184  and  _185
REMARK   77  A    between atoms: _184  and  _187
REMARK   78  A    between atoms: _187  and  _188
REMARK   79  A    between atoms: _194  and  _196
REMARK   80  A    between atoms: _196  and  _197
REMARK   81  A    between atoms: _196  and  _199
REMARK   82  A    between atoms: _199  and  _200
REMARK   83  A    between atoms: _205  and  _206
REMARK   84  A    between atoms: _208  and  _210
REMARK   85  A    between atoms: _210  and  _211
REMARK   86  A    between atoms: _213  and  _215
REMARK   87  A    between atoms: _215  and  _216
REMARK   88  A    between atoms: _218  and  _220
REMARK   89  A    between atoms: _220  and  _221
REMARK   90  A    between atoms: _220  and  _223
REMARK   91  A    between atoms: _223  and  _224
REMARK   92  A    between atoms: _234  and  _236
REMARK   93  A    between atoms: _236  and  _237
REMARK   94  A    between atoms: _236  and  _239
REMARK   95  A    between atoms: _239  and  _240
REMARK   96  A    between atoms: _245  and  _247
REMARK   97  A    between atoms: _247  and  _248
REMARK   98  A    between atoms: _247  and  _250
REMARK   99  A    between atoms: _250  and  _251
REMARK  100  A    between atoms: _251  and  _252
REMARK  101  A    between atoms: _257  and  _259
REMARK  102  A    between atoms: _259  and  _260
REMARK  103  A    between atoms: _263  and  _265
REMARK  104  A    between atoms: _265  and  _266
REMARK  105  A    between atoms: _265  and  _268
REMARK  106  A    between atoms: _268  and  _269
REMARK  107  A    between atoms: _274  and  _275
REMARK  108  A    between atoms: _277  and  _279
REMARK  109  A    between atoms: _279  and  _280
REMARK  110  A    between atoms: _279  and  _282
REMARK  111  A    between atoms: _282  and  _283
REMARK  112  A    between atoms: _286  and  _288
REMARK  113  A    between atoms: _288  and  _289
REMARK  114  A    between atoms: _288  and  _291
REMARK  115  A    between atoms: _291  and  _292
REMARK  116  A    between atoms: _297  and  _298
REMARK  117  A    between atoms: _300  and  _302
REMARK  118  A    between atoms: _302  and  _303
REMARK  119  A    between atoms: _302  and  _305
REMARK  120  A    between atoms: _305  and  _306
REMARK  121  A    between atoms: _306  and  _307
REMARK  122  A    between atoms: _307  and  _308
REMARK  123  A    between atoms: _317  and  _319
REMARK  124  A    between atoms: _319  and  _320
REMARK  125  A    between atoms: _319  and  _322
REMARK  126  A    between atoms: _322  and  _323
REMARK  127  A    between atoms: _323  and  _324
REMARK  128  A    between atoms: _324  and  _325
REMARK  129  A    between atoms: _325  and  _326
REMARK  130  A    between atoms: _330  and  _332
REMARK  131  A    between atoms: _332  and  _333
REMARK  132  A    between atoms: _332  and  _335
REMARK  133  A    between atoms: _335  and  _336
REMARK  134  A    between atoms: _336  and  _337
REMARK  135  A    between atoms: _340  and  _342
REMARK  136  A    between atoms: _342  and  _343
REMARK  137  A    between atoms: _342  and  _345
REMARK  138  A    between atoms: _348  and  _350
REMARK  139  A    between atoms: _350  and  _351
REMARK  140  A    between atoms: _350  and  _353
REMARK  141  A    between atoms: _353  and  _354
REMARK                            x       y       z     vdW  Elec       q    Type
REMARK                         _______ _______ _______ _____ _____    ______ ____
ROOT
ATOM      1  O   HOH     1      -9.156  -9.323   2.461  0.00  0.00    +0.000 OA
ENDROOT
TORSDOF 0
REMARK  Name = ../refined-set-2016/3arr/3arr_pocket.pdb
REMARK  141 active torsions:
REMARK  status: ('A' for Active; 'I' for Inactive)
REMARK    1  A    between atoms: _1  and  _3
REMARK    2  A    between atoms: _3  and  _4
REMARK    3  A    between atoms: _3  and  _6
REMARK    4  A    between atoms: _6  and  _7
REMARK    5  A    between atoms: _17  and  _19
REMARK    6  A    between atoms: _19  and  _20
REMARK    7  A    between atoms: _19  and  _22
REMARK    8  A    between atoms: _22  and  _23
REMARK    9  A    between atoms: _26  and  _28
REMARK   10  A    between atoms: _28  and  _29
REMARK   11  A    between atoms: _28  and  _31
REMARK   12  A    between atoms: _31  and  _32
REMARK   13  A    between atoms: _32  and  _33
REMARK   14  A    between atoms: _36  and  _38
REMARK   15  A    between atoms: _38  and  _39
REMARK   16  A    between atoms: _38  and  _41
REMARK   17  A    between atoms: _41  and  _42
REMARK   18  A    between atoms: _48  and  _50
REMARK   19  A    between atoms: _50  and  _51
REMARK   20  A    between atoms: _53  and  _55
REMARK   21  A    between atoms: _55  and  _56
REMARK   22  A    between atoms: _58  and  _60
REMARK   23  A    between atoms: _60  and  _61
REMARK   24  A    between atoms: _63  and  _65
REMARK   25  A    between atoms: _65  and  _66
REMARK   26  A    between atoms: _69  and  _71
REMARK   27  A    between atoms: _71  and  _72
REMARK   28  A    between atoms: _71  and  _74
REMARK   29  A    between atoms: _74  and  _75
REMARK   30  A    between atoms: _78  and  _80
REMARK   31  A    between atoms: _80  and  _81
REMARK   32  A    between atoms: _83  and  _85
REMARK   33  A    between atoms: _85  and  _86
REMARK   34  A    between atoms: _85  and  _88
REMARK   35  A    between atoms: _91  and  _93
REMARK   36  A    between atoms: _93  and  _94
REMARK   37  A    between atoms: _96  and  _98
REMARK   38  A    between atoms: _98  and  _99
REMARK   39  A    between atoms: _98  and  _101
REMARK   40  A    between atoms: _101  and  _102
REMARK   41  A    between atoms: _107  and  _108
REMARK   42  A    between atoms: _110  and  _112
REMARK   43  A    between atoms: _112  and  _113
REMARK   44  A    between atoms: _112  and  _115
REMARK   45  A    between atoms: _115  and  _116
REMARK   46  A    between atoms: _119  and  _121
REMARK   47  A    between atoms: _121  and  _122
REMARK   48  A    between atoms: _121  and  _124
REMARK   49  A    between atoms: _124  and  _125
REMARK   50  A    between atoms: _125  and  _126
REMARK   51  A    between atoms: _126  and  _127
REMARK   52  A    between atoms: _127  and  _128
REMARK   53  A    between atoms: _132  and  _134
REMARK   54  A    between atoms: _134  and  _135
REMARK   55  A    between atoms: _134  and  _137
REMARK   56  A    between atoms: _137  and  _138
REMARK   57  A    between atoms: _141  and  _143
REMARK   58  A    between atoms: _143  and  _144
REMARK   59  A    between atoms: _143  and  _146
REMARK   60  A    between atoms: _146  and  _147
REMARK   61  A    between atoms: _147  and  _148
REMARK   62  A    between atoms: _150  and  _152
REMARK   63  A    between atoms: _152  and  _153
REMARK   64  A    between atoms: _152  and  _155
REMARK   65  A    between atoms: _155  and  _156
REMARK   66  A    between atoms: _159  and  _161
REMARK   67  A    between atoms: _161  and  _162
REMARK   68  A    between atoms: _161  and  _164
REMARK   69  A    between atoms: _164  and  _165
REMARK   70  A    between atoms: _170  and  _171
REMARK   71  A    between atoms: _173  and  _175
REMARK   72  A    between atoms: _175  and  _176
REMARK   73  A    between atoms: _175  and  _178
REMARK   74  A    between atoms: _178  and  _179
REMARK   75  A    between atoms: _182  and  _184
REMARK   76  A    between atoms: _184  and  _185
REMARK   77  A    between atoms: _184  and  _187
REMARK   78  A    between atoms: _187  and  _188
REMARK   79  A    between atoms: _194  and  _196
REMARK   80  A    between atoms: _196  and  _197
REMARK   81  A    between atoms: _196  and  _199
REMARK   82  A    between atoms: _199  and  _200
REMARK   83  A    between atoms: _205  and  _206
REMARK   84  A    between atoms: _208  and  _210
REMARK   85  A    between atoms: _210  and  _211
REMARK   86  A    between atoms: _213  and  _215
REMARK   87  A    between atoms: _215  and  _216
REMARK   88  A    between atoms: _218  and  _220
REMARK   89  A    between atoms: _220  and  _221
REMARK   90  A    between atoms: _220  and  _223
REMARK   91  A    between atoms: _223  and  _224
REMARK   92  A    between atoms: _234  and  _236
REMARK   93  A    between atoms: _236  and  _237
REMARK   94  A    between atoms: _236  and  _239
REMARK   95  A    between atoms: _239  and  _240
REMARK   96  A    between atoms: _245  and  _247
REMARK   97  A    between atoms: _247  and  _248
REMARK   98  A    between atoms: _247  and  _250
REMARK   99  A    between atoms: _250  and  _251
REMARK  100  A    between atoms: _251  and  _252
REMARK  101  A    between atoms: _257  and  _259
REMARK  102  A    between atoms: _259  and  _260
REMARK  103  A    between atoms: _263  and  _265
REMARK  104  A    between atoms: _265  and  _266
REMARK  105  A    between atoms: _265  and  _268
REMARK  106  A    between atoms: _268  and  _269
REMARK  107  A    between atoms: _274  and  _275
REMARK  108  A    between atoms: _277  and  _279
REMARK  109  A    between atoms: _279  and  _280
REMARK  110  A    between atoms: _279  and  _282
REMARK  111  A    between atoms: _282  and  _283
REMARK  112  A    between atoms: _286  and  _288
REMARK  113  A    between atoms: _288  and  _289
REMARK  114  A    between atoms: _288  and  _291
REMARK  115  A    between atoms: _291  and  _292
REMARK  116  A    between atoms: _297  and  _298
REMARK  117  A    between atoms: _300  and  _302
REMARK  118  A    between atoms: _302  and  _303
REMARK  119  A    between atoms: _302  and  _305
REMARK  120  A    between atoms: _305  and  _306
REMARK  121  A    between atoms: _306  and  _307
REMARK  122  A    between atoms: _307  and  _308
REMARK  123  A    between atoms: _317  and  _319
REMARK  124  A    between atoms: _319  and  _320
REMARK  125  A    between atoms: _319  and  _322
REMARK  126  A    between atoms: _322  and  _323
REMARK  127  A    between atoms: _323  and  _324
REMARK  128  A    between atoms: _324  and  _325
REMARK  129  A    between atoms: _325  and  _326
REMARK  130  A    between atoms: _330  and  _332
REMARK  131  A    between atoms: _332  and  _333
REMARK  132  A    between atoms: _332  and  _335
REMARK  133  A    between atoms: _335  and  _336
REMARK  134  A    between atoms: _336  and  _337
REMARK  135  A    between atoms: _340  and  _342
REMARK  136  A    between atoms: _342  and  _343
REMARK  137  A    between atoms: _342  and  _345
REMARK  138  A    between atoms: _348  and  _350
REMARK  139  A    between atoms: _350  and  _351
REMARK  140  A    between atoms: _350  and  _353
REMARK  141  A    between atoms: _353  and  _354
REMARK                            x       y       z     vdW  Elec       q    Type
REMARK                         _______ _______ _______ _____ _____    ______ ____
ROOT
ATOM      1  O   HOH     1       4.358 -12.122   3.202  0.00  0.00    +0.000 OA
ENDROOT
TORSDOF 0
REMARK  Name = ../refined-set-2016/3arr/3arr_pocket.pdb
REMARK  141 active torsions:
REMARK  status: ('A' for Active; 'I' for Inactive)
REMARK    1  A    between atoms: _1  and  _3
REMARK    2  A    between atoms: _3  and  _4
REMARK    3  A    between atoms: _3  and  _6
REMARK    4  A    between atoms: _6  and  _7
REMARK    5  A    between atoms: _17  and  _19
REMARK    6  A    between atoms: _19  and  _20
REMARK    7  A    between atoms: _19  and  _22
REMARK    8  A    between atoms: _22  and  _23
REMARK    9  A    between atoms: _26  and  _28
REMARK   10  A    between atoms: _28  and  _29
REMARK   11  A    between atoms: _28  and  _31
REMARK   12  A    between atoms: _31  and  _32
REMARK   13  A    between atoms: _32  and  _33
REMARK   14  A    between atoms: _36  and  _38
REMARK   15  A    between atoms: _38  and  _39
REMARK   16  A    between atoms: _38  and  _41
REMARK   17  A    between atoms: _41  and  _42
REMARK   18  A    between atoms: _48  and  _50
REMARK   19  A    between atoms: _50  and  _51
REMARK   20  A    between atoms: _53  and  _55
REMARK   21  A    between atoms: _55  and  _56
REMARK   22  A    between atoms: _58  and  _60
REMARK   23  A    between atoms: _60  and  _61
REMARK   24  A    between atoms: _63  and  _65
REMARK   25  A    between atoms: _65  and  _66
REMARK   26  A    between atoms: _69  and  _71
REMARK   27  A    between atoms: _71  and  _72
REMARK   28  A    between atoms: _71  and  _74
REMARK   29  A    between atoms: _74  and  _75
REMARK   30  A    between atoms: _78  and  _80
REMARK   31  A    between atoms: _80  and  _81
REMARK   32  A    between atoms: _83  and  _85
REMARK   33  A    between atoms: _85  and  _86
REMARK   34  A    between atoms: _85  and  _88
REMARK   35  A    between atoms: _91  and  _93
REMARK   36  A    between atoms: _93  and  _94
REMARK   37  A    between atoms: _96  and  _98
REMARK   38  A    between atoms: _98  and  _99
REMARK   39  A    between atoms: _98  and  _101
REMARK   40  A    between atoms: _101  and  _102
REMARK   41  A    between atoms: _107  and  _108
REMARK   42  A    between atoms: _110  and  _112
REMARK   43  A    between atoms: _112  and  _113
REMARK   44  A    between atoms: _112  and  _115
REMARK   45  A    between atoms: _115  and  _116
REMARK   46  A    between atoms: _119  and  _121
REMARK   47  A    between atoms: _121  and  _122
REMARK   48  A    between atoms: _121  and  _124
REMARK   49  A    between atoms: _124  and  _125
REMARK   50  A    between atoms: _125  and  _126
REMARK   51  A    between atoms: _126  and  _127
REMARK   52  A    between atoms: _127  and  _128
REMARK   53  A    between atoms: _132  and  _134
REMARK   54  A    between atoms: _134  and  _135
REMARK   55  A    between atoms: _134  and  _137
REMARK   56  A    between atoms: _137  and  _138
REMARK   57  A    between atoms: _141  and  _143
REMARK   58  A    between atoms: _143  and  _144
REMARK   59  A    between atoms: _143  and  _146
REMARK   60  A    between atoms: _146  and  _147
REMARK   61  A    between atoms: _147  and  _148
REMARK   62  A    between atoms: _150  and  _152
REMARK   63  A    between atoms: _152  and  _153
REMARK   64  A    between atoms: _152  and  _155
REMARK   65  A    between atoms: _155  and  _156
REMARK   66  A    between atoms: _159  and  _161
REMARK   67  A    between atoms: _161  and  _162
REMARK   68  A    between atoms: _161  and  _164
REMARK   69  A    between atoms: _164  and  _165
REMARK   70  A    between atoms: _170  and  _171
REMARK   71  A    between atoms: _173  and  _175
REMARK   72  A    between atoms: _175  and  _176
REMARK   73  A    between atoms: _175  and  _178
REMARK   74  A    between atoms: _178  and  _179
REMARK   75  A    between atoms: _182  and  _184
REMARK   76  A    between atoms: _184  and  _185
REMARK   77  A    between atoms: _184  and  _187
REMARK   78  A    between atoms: _187  and  _188
REMARK   79  A    between atoms: _194  and  _196
REMARK   80  A    between atoms: _196  and  _197
REMARK   81  A    between atoms: _196  and  _199
REMARK   82  A    between atoms: _199  and  _200
REMARK   83  A    between atoms: _205  and  _206
REMARK   84  A    between atoms: _208  and  _210
REMARK   85  A    between atoms: _210  and  _211
REMARK   86  A    between atoms: _213  and  _215
REMARK   87  A    between atoms: _215  and  _216
REMARK   88  A    between atoms: _218  and  _220
REMARK   89  A    between atoms: _220  and  _221
REMARK   90  A    between atoms: _220  and  _223
REMARK   91  A    between atoms: _223  and  _224
REMARK   92  A    between atoms: _234  and  _236
REMARK   93  A    between atoms: _236  and  _237
REMARK   94  A    between atoms: _236  and  _239
REMARK   95  A    between atoms: _239  and  _240
REMARK   96  A    between atoms: _245  and  _247
REMARK   97  A    between atoms: _247  and  _248
REMARK   98  A    between atoms: _247  and  _250
REMARK   99  A    between atoms: _250  and  _251
REMARK  100  A    between atoms: _251  and  _252
REMARK  101  A    between atoms: _257  and  _259
REMARK  102  A    between atoms: _259  and  _260
REMARK  103  A    between atoms: _263  and  _265
REMARK  104  A    between atoms: _265  and  _266
REMARK  105  A    between atoms: _265  and  _268
REMARK  106  A    between atoms: _268  and  _269
REMARK  107  A    between atoms: _274  and  _275
REMARK  108  A    between atoms: _277  and  _279
REMARK  109  A    between atoms: _279  and  _280
REMARK  110  A    between atoms: _279  and  _282
REMARK  111  A    between atoms: _282  and  _283
REMARK  112  A    between atoms: _286  and  _288
REMARK  113  A    between atoms: _288  and  _289
REMARK  114  A    between atoms: _288  and  _291
REMARK  115  A    between atoms: _291  and  _292
REMARK  116  A    between atoms: _297  and  _298
REMARK  117  A    between atoms: _300  and  _302
REMARK  118  A    between atoms: _302  and  _303
REMARK  119  A    between atoms: _302  and  _305
REMARK  120  A    between atoms: _305  and  _306
REMARK  121  A    between atoms: _306  and  _307
REMARK  122  A    between atoms: _307  and  _308
REMARK  123  A    between atoms: _317  and  _319
REMARK  124  A    between atoms: _319  and  _320
REMARK  125  A    between atoms: _319  and  _322
REMARK  126  A    between atoms: _322  and  _323
REMARK  127  A    between atoms: _323  and  _324
REMARK  128  A    between atoms: _324  and  _325
REMARK  129  A    between atoms: _325  and  _326
REMARK  130  A    between atoms: _330  and  _332
REMARK  131  A    between atoms: _332  and  _333
REMARK  132  A    between atoms: _332  and  _335
REMARK  133  A    between atoms: _335  and  _336
REMARK  134  A    between atoms: _336  and  _337
REMARK  135  A    between atoms: _340  and  _342
REMARK  136  A    between atoms: _342  and  _343
REMARK  137  A    between atoms: _342  and  _345
REMARK  138  A    between atoms: _348  and  _350
REMARK  139  A    between atoms: _350  and  _351
REMARK  140  A    between atoms: _350  and  _353
REMARK  141  A    between atoms: _353  and  _354
REMARK                            x       y       z     vdW  Elec       q    Type
REMARK                         _______ _______ _______ _____ _____    ______ ____
ROOT
ATOM      1  O   HOH     1     -11.134  -6.982   7.775  0.00  0.00    +0.000 OA
ENDROOT
TORSDOF 0
REMARK  Name = ../refined-set-2016/3arr/3arr_pocket.pdb
REMARK  141 active torsions:
REMARK  status: ('A' for Active; 'I' for Inactive)
REMARK    1  A    between atoms: _1  and  _3
REMARK    2  A    between atoms: _3  and  _4
REMARK    3  A    between atoms: _3  and  _6
REMARK    4  A    between atoms: _6  and  _7
REMARK    5  A    between atoms: _17  and  _19
REMARK    6  A    between atoms: _19  and  _20
REMARK    7  A    between atoms: _19  and  _22
REMARK    8  A    between atoms: _22  and  _23
REMARK    9  A    between atoms: _26  and  _28
REMARK   10  A    between atoms: _28  and  _29
REMARK   11  A    between atoms: _28  and  _31
REMARK   12  A    between atoms: _31  and  _32
REMARK   13  A    between atoms: _32  and  _33
REMARK   14  A    between atoms: _36  and  _38
REMARK   15  A    between atoms: _38  and  _39
REMARK   16  A    between atoms: _38  and  _41
REMARK   17  A    between atoms: _41  and  _42
REMARK   18  A    between atoms: _48  and  _50
REMARK   19  A    between atoms: _50  and  _51
REMARK   20  A    between atoms: _53  and  _55
REMARK   21  A    between atoms: _55  and  _56
REMARK   22  A    between atoms: _58  and  _60
REMARK   23  A    between atoms: _60  and  _61
REMARK   24  A    between atoms: _63  and  _65
REMARK   25  A    between atoms: _65  and  _66
REMARK   26  A    between atoms: _69  and  _71
REMARK   27  A    between atoms: _71  and  _72
REMARK   28  A    between atoms: _71  and  _74
REMARK   29  A    between atoms: _74  and  _75
REMARK   30  A    between atoms: _78  and  _80
REMARK   31  A    between atoms: _80  and  _81
REMARK   32  A    between atoms: _83  and  _85
REMARK   33  A    between atoms: _85  and  _86
REMARK   34  A    between atoms: _85  and  _88
REMARK   35  A    between atoms: _91  and  _93
REMARK   36  A    between atoms: _93  and  _94
REMARK   37  A    between atoms: _96  and  _98
REMARK   38  A    between atoms: _98  and  _99
REMARK   39  A    between atoms: _98  and  _101
REMARK   40  A    between atoms: _101  and  _102
REMARK   41  A    between atoms: _107  and  _108
REMARK   42  A    between atoms: _110  and  _112
REMARK   43  A    between atoms: _112  and  _113
REMARK   44  A    between atoms: _112  and  _115
REMARK   45  A    between atoms: _115  and  _116
REMARK   46  A    between atoms: _119  and  _121
REMARK   47  A    between atoms: _121  and  _122
REMARK   48  A    between atoms: _121  and  _124
REMARK   49  A    between atoms: _124  and  _125
REMARK   50  A    between atoms: _125  and  _126
REMARK   51  A    between atoms: _126  and  _127
REMARK   52  A    between atoms: _127  and  _128
REMARK   53  A    between atoms: _132  and  _134
REMARK   54  A    between atoms: _134  and  _135
REMARK   55  A    between atoms: _134  and  _137
REMARK   56  A    between atoms: _137  and  _138
REMARK   57  A    between atoms: _141  and  _143
REMARK   58  A    between atoms: _143  and  _144
REMARK   59  A    between atoms: _143  and  _146
REMARK   60  A    between atoms: _146  and  _147
REMARK   61  A    between atoms: _147  and  _148
REMARK   62  A    between atoms: _150  and  _152
REMARK   63  A    between atoms: _152  and  _153
REMARK   64  A    between atoms: _152  and  _155
REMARK   65  A    between atoms: _155  and  _156
REMARK   66  A    between atoms: _159  and  _161
REMARK   67  A    between atoms: _161  and  _162
REMARK   68  A    between atoms: _161  and  _164
REMARK   69  A    between atoms: _164  and  _165
REMARK   70  A    between atoms: _170  and  _171
REMARK   71  A    between atoms: _173  and  _175
REMARK   72  A    between atoms: _175  and  _176
REMARK   73  A    between atoms: _175  and  _178
REMARK   74  A    between atoms: _178  and  _179
REMARK   75  A    between atoms: _182  and  _184
REMARK   76  A    between atoms: _184  and  _185
REMARK   77  A    between atoms: _184  and  _187
REMARK   78  A    between atoms: _187  and  _188
REMARK   79  A    between atoms: _194  and  _196
REMARK   80  A    between atoms: _196  and  _197
REMARK   81  A    between atoms: _196  and  _199
REMARK   82  A    between atoms: _199  and  _200
REMARK   83  A    between atoms: _205  and  _206
REMARK   84  A    between atoms: _208  and  _210
REMARK   85  A    between atoms: _210  and  _211
REMARK   86  A    between atoms: _213  and  _215
REMARK   87  A    between atoms: _215  and  _216
REMARK   88  A    between atoms: _218  and  _220
REMARK   89  A    between atoms: _220  and  _221
REMARK   90  A    between atoms: _220  and  _223
REMARK   91  A    between atoms: _223  and  _224
REMARK   92  A    between atoms: _234  and  _236
REMARK   93  A    between atoms: _236  and  _237
REMARK   94  A    between atoms: _236  and  _239
REMARK   95  A    between atoms: _239  and  _240
REMARK   96  A    between atoms: _245  and  _247
REMARK   97  A    between atoms: _247  and  _248
REMARK   98  A    between atoms: _247  and  _250
REMARK   99  A    between atoms: _250  and  _251
REMARK  100  A    between atoms: _251  and  _252
REMARK  101  A    between atoms: _257  and  _259
REMARK  102  A    between atoms: _259  and  _260
REMARK  103  A    between atoms: _263  and  _265
REMARK  104  A    between atoms: _265  and  _266
REMARK  105  A    between atoms: _265  and  _268
REMARK  106  A    between atoms: _268  and  _269
REMARK  107  A    between atoms: _274  and  _275
REMARK  108  A    between atoms: _277  and  _279
REMARK  109  A    between atoms: _279  and  _280
REMARK  110  A    between atoms: _279  and  _282
REMARK  111  A    between atoms: _282  and  _283
REMARK  112  A    between atoms: _286  and  _288
REMARK  113  A    between atoms: _288  and  _289
REMARK  114  A    between atoms: _288  and  _291
REMARK  115  A    between atoms: _291  and  _292
REMARK  116  A    between atoms: _297  and  _298
REMARK  117  A    between atoms: _300  and  _302
REMARK  118  A    between atoms: _302  and  _303
REMARK  119  A    between atoms: _302  and  _305
REMARK  120  A    between atoms: _305  and  _306
REMARK  121  A    between atoms: _306  and  _307
REMARK  122  A    between atoms: _307  and  _308
REMARK  123  A    between atoms: _317  and  _319
REMARK  124  A    between atoms: _319  and  _320
REMARK  125  A    between atoms: _319  and  _322
REMARK  126  A    between atoms: _322  and  _323
REMARK  127  A    between atoms: _323  and  _324
REMARK  128  A    between atoms: _324  and  _325
REMARK  129  A    between atoms: _325  and  _326
REMARK  130  A    between atoms: _330  and  _332
REMARK  131  A    between atoms: _332  and  _333
REMARK  132  A    between atoms: _332  and  _335
REMARK  133  A    between atoms: _335  and  _336
REMARK  134  A    between atoms: _336  and  _337
REMARK  135  A    between atoms: _340  and  _342
REMARK  136  A    between atoms: _342  and  _343
REMARK  137  A    between atoms: _342  and  _345
REMARK  138  A    between atoms: _348  and  _350
REMARK  139  A    between atoms: _350  and  _351
REMARK  140  A    between atoms: _350  and  _353
REMARK  141  A    between atoms: _353  and  _354
REMARK                            x       y       z     vdW  Elec       q    Type
REMARK                         _______ _______ _______ _____ _____    ______ ____
ROOT
ATOM      1  O   HOH     1     -11.001  -8.907   5.826  0.00  0.00    +0.000 OA
ENDROOT
TORSDOF 0
REMARK  Name = ../refined-set-2016/3arr/3arr_pocket.pdb
REMARK  141 active torsions:
REMARK  status: ('A' for Active; 'I' for Inactive)
REMARK    1  A    between atoms: _1  and  _3
REMARK    2  A    between atoms: _3  and  _4
REMARK    3  A    between atoms: _3  and  _6
REMARK    4  A    between atoms: _6  and  _7
REMARK    5  A    between atoms: _17  and  _19
REMARK    6  A    between atoms: _19  and  _20
REMARK    7  A    between atoms: _19  and  _22
REMARK    8  A    between atoms: _22  and  _23
REMARK    9  A    between atoms: _26  and  _28
REMARK   10  A    between atoms: _28  and  _29
REMARK   11  A    between atoms: _28  and  _31
REMARK   12  A    between atoms: _31  and  _32
REMARK   13  A    between atoms: _32  and  _33
REMARK   14  A    between atoms: _36  and  _38
REMARK   15  A    between atoms: _38  and  _39
REMARK   16  A    between atoms: _38  and  _41
REMARK   17  A    between atoms: _41  and  _42
REMARK   18  A    between atoms: _48  and  _50
REMARK   19  A    between atoms: _50  and  _51
REMARK   20  A    between atoms: _53  and  _55
REMARK   21  A    between atoms: _55  and  _56
REMARK   22  A    between atoms: _58  and  _60
REMARK   23  A    between atoms: _60  and  _61
REMARK   24  A    between atoms: _63  and  _65
REMARK   25  A    between atoms: _65  and  _66
REMARK   26  A    between atoms: _69  and  _71
REMARK   27  A    between atoms: _71  and  _72
REMARK   28  A    between atoms: _71  and  _74
REMARK   29  A    between atoms: _74  and  _75
REMARK   30  A    between atoms: _78  and  _80
REMARK   31  A    between atoms: _80  and  _81
REMARK   32  A    between atoms: _83  and  _85
REMARK   33  A    between atoms: _85  and  _86
REMARK   34  A    between atoms: _85  and  _88
REMARK   35  A    between atoms: _91  and  _93
REMARK   36  A    between atoms: _93  and  _94
REMARK   37  A    between atoms: _96  and  _98
REMARK   38  A    between atoms: _98  and  _99
REMARK   39  A    between atoms: _98  and  _101
REMARK   40  A    between atoms: _101  and  _102
REMARK   41  A    between atoms: _107  and  _108
REMARK   42  A    between atoms: _110  and  _112
REMARK   43  A    between atoms: _112  and  _113
REMARK   44  A    between atoms: _112  and  _115
REMARK   45  A    between atoms: _115  and  _116
REMARK   46  A    between atoms: _119  and  _121
REMARK   47  A    between atoms: _121  and  _122
REMARK   48  A    between atoms: _121  and  _124
REMARK   49  A    between atoms: _124  and  _125
REMARK   50  A    between atoms: _125  and  _126
REMARK   51  A    between atoms: _126  and  _127
REMARK   52  A    between atoms: _127  and  _128
REMARK   53  A    between atoms: _132  and  _134
REMARK   54  A    between atoms: _134  and  _135
REMARK   55  A    between atoms: _134  and  _137
REMARK   56  A    between atoms: _137  and  _138
REMARK   57  A    between atoms: _141  and  _143
REMARK   58  A    between atoms: _143  and  _144
REMARK   59  A    between atoms: _143  and  _146
REMARK   60  A    between atoms: _146  and  _147
REMARK   61  A    between atoms: _147  and  _148
REMARK   62  A    between atoms: _150  and  _152
REMARK   63  A    between atoms: _152  and  _153
REMARK   64  A    between atoms: _152  and  _155
REMARK   65  A    between atoms: _155  and  _156
REMARK   66  A    between atoms: _159  and  _161
REMARK   67  A    between atoms: _161  and  _162
REMARK   68  A    between atoms: _161  and  _164
REMARK   69  A    between atoms: _164  and  _165
REMARK   70  A    between atoms: _170  and  _171
REMARK   71  A    between atoms: _173  and  _175
REMARK   72  A    between atoms: _175  and  _176
REMARK   73  A    between atoms: _175  and  _178
REMARK   74  A    between atoms: _178  and  _179
REMARK   75  A    between atoms: _182  and  _184
REMARK   76  A    between atoms: _184  and  _185
REMARK   77  A    between atoms: _184  and  _187
REMARK   78  A    between atoms: _187  and  _188
REMARK   79  A    between atoms: _194  and  _196
REMARK   80  A    between atoms: _196  and  _197
REMARK   81  A    between atoms: _196  and  _199
REMARK   82  A    between atoms: _199  and  _200
REMARK   83  A    between atoms: _205  and  _206
REMARK   84  A    between atoms: _208  and  _210
REMARK   85  A    between atoms: _210  and  _211
REMARK   86  A    between atoms: _213  and  _215
REMARK   87  A    between atoms: _215  and  _216
REMARK   88  A    between atoms: _218  and  _220
REMARK   89  A    between atoms: _220  and  _221
REMARK   90  A    between atoms: _220  and  _223
REMARK   91  A    between atoms: _223  and  _224
REMARK   92  A    between atoms: _234  and  _236
REMARK   93  A    between atoms: _236  and  _237
REMARK   94  A    between atoms: _236  and  _239
REMARK   95  A    between atoms: _239  and  _240
REMARK   96  A    between atoms: _245  and  _247
REMARK   97  A    between atoms: _247  and  _248
REMARK   98  A    between atoms: _247  and  _250
REMARK   99  A    between atoms: _250  and  _251
REMARK  100  A    between atoms: _251  and  _252
REMARK  101  A    between atoms: _257  and  _259
REMARK  102  A    between atoms: _259  and  _260
REMARK  103  A    between atoms: _263  and  _265
REMARK  104  A    between atoms: _265  and  _266
REMARK  105  A    between atoms: _265  and  _268
REMARK  106  A    between atoms: _268  and  _269
REMARK  107  A    between atoms: _274  and  _275
REMARK  108  A    between atoms: _277  and  _279
REMARK  109  A    between atoms: _279  and  _280
REMARK  110  A    between atoms: _279  and  _282
REMARK  111  A    between atoms: _282  and  _283
REMARK  112  A    between atoms: _286  and  _288
REMARK  113  A    between atoms: _288  and  _289
REMARK  114  A    between atoms: _288  and  _291
REMARK  115  A    between atoms: _291  and  _292
REMARK  116  A    between atoms: _297  and  _298
REMARK  117  A    between atoms: _300  and  _302
REMARK  118  A    between atoms: _302  and  _303
REMARK  119  A    between atoms: _302  and  _305
REMARK  120  A    between atoms: _305  and  _306
REMARK  121  A    between atoms: _306  and  _307
REMARK  122  A    between atoms: _307  and  _308
REMARK  123  A    between atoms: _317  and  _319
REMARK  124  A    between atoms: _319  and  _320
REMARK  125  A    between atoms: _319  and  _322
REMARK  126  A    between atoms: _322  and  _323
REMARK  127  A    between atoms: _323  and  _324
REMARK  128  A    between atoms: _324  and  _325
REMARK  129  A    between atoms: _325  and  _326
REMARK  130  A    between atoms: _330  and  _332
REMARK  131  A    between atoms: _332  and  _333
REMARK  132  A    between atoms: _332  and  _335
REMARK  133  A    between atoms: _335  and  _336
REMARK  134  A    between atoms: _336  and  _337
REMARK  135  A    between atoms: _340  and  _342
REMARK  136  A    between atoms: _342  and  _343
REMARK  137  A    between atoms: _342  and  _345
REMARK  138  A    between atoms: _348  and  _350
REMARK  139  A    between atoms: _350  and  _351
REMARK  140  A    between atoms: _350  and  _353
REMARK  141  A    between atoms: _353  and  _354
REMARK                            x       y       z     vdW  Elec       q    Type
REMARK                         _______ _______ _______ _____ _____    ______ ____
ROOT
ATOM      1  O   HOH     1      -9.949  -7.089   1.703  0.00  0.00    +0.000 OA
ENDROOT
TORSDOF 0
REMARK  Name = ../refined-set-2016/3arr/3arr_pocket.pdb
REMARK  141 active torsions:
REMARK  status: ('A' for Active; 'I' for Inactive)
REMARK    1  A    between atoms: _1  and  _3
REMARK    2  A    between atoms: _3  and  _4
REMARK    3  A    between atoms: _3  and  _6
REMARK    4  A    between atoms: _6  and  _7
REMARK    5  A    between atoms: _17  and  _19
REMARK    6  A    between atoms: _19  and  _20
REMARK    7  A    between atoms: _19  and  _22
REMARK    8  A    between atoms: _22  and  _23
REMARK    9  A    between atoms: _26  and  _28
REMARK   10  A    between atoms: _28  and  _29
REMARK   11  A    between atoms: _28  and  _31
REMARK   12  A    between atoms: _31  and  _32
REMARK   13  A    between atoms: _32  and  _33
REMARK   14  A    between atoms: _36  and  _38
REMARK   15  A    between atoms: _38  and  _39
REMARK   16  A    between atoms: _38  and  _41
REMARK   17  A    between atoms: _41  and  _42
REMARK   18  A    between atoms: _48  and  _50
REMARK   19  A    between atoms: _50  and  _51
REMARK   20  A    between atoms: _53  and  _55
REMARK   21  A    between atoms: _55  and  _56
REMARK   22  A    between atoms: _58  and  _60
REMARK   23  A    between atoms: _60  and  _61
REMARK   24  A    between atoms: _63  and  _65
REMARK   25  A    between atoms: _65  and  _66
REMARK   26  A    between atoms: _69  and  _71
REMARK   27  A    between atoms: _71  and  _72
REMARK   28  A    between atoms: _71  and  _74
REMARK   29  A    between atoms: _74  and  _75
REMARK   30  A    between atoms: _78  and  _80
REMARK   31  A    between atoms: _80  and  _81
REMARK   32  A    between atoms: _83  and  _85
REMARK   33  A    between atoms: _85  and  _86
REMARK   34  A    between atoms: _85  and  _88
REMARK   35  A    between atoms: _91  and  _93
REMARK   36  A    between atoms: _93  and  _94
REMARK   37  A    between atoms: _96  and  _98
REMARK   38  A    between atoms: _98  and  _99
REMARK   39  A    between atoms: _98  and  _101
REMARK   40  A    between atoms: _101  and  _102
REMARK   41  A    between atoms: _107  and  _108
REMARK   42  A    between atoms: _110  and  _112
REMARK   43  A    between atoms: _112  and  _113
REMARK   44  A    between atoms: _112  and  _115
REMARK   45  A    between atoms: _115  and  _116
REMARK   46  A    between atoms: _119  and  _121
REMARK   47  A    between atoms: _121  and  _122
REMARK   48  A    between atoms: _121  and  _124
REMARK   49  A    between atoms: _124  and  _125
REMARK   50  A    between atoms: _125  and  _126
REMARK   51  A    between atoms: _126  and  _127
REMARK   52  A    between atoms: _127  and  _128
REMARK   53  A    between atoms: _132  and  _134
REMARK   54  A    between atoms: _134  and  _135
REMARK   55  A    between atoms: _134  and  _137
REMARK   56  A    between atoms: _137  and  _138
REMARK   57  A    between atoms: _141  and  _143
REMARK   58  A    between atoms: _143  and  _144
REMARK   59  A    between atoms: _143  and  _146
REMARK   60  A    between atoms: _146  and  _147
REMARK   61  A    between atoms: _147  and  _148
REMARK   62  A    between atoms: _150  and  _152
REMARK   63  A    between atoms: _152  and  _153
REMARK   64  A    between atoms: _152  and  _155
REMARK   65  A    between atoms: _155  and  _156
REMARK   66  A    between atoms: _159  and  _161
REMARK   67  A    between atoms: _161  and  _162
REMARK   68  A    between atoms: _161  and  _164
REMARK   69  A    between atoms: _164  and  _165
REMARK   70  A    between atoms: _170  and  _171
REMARK   71  A    between atoms: _173  and  _175
REMARK   72  A    between atoms: _175  and  _176
REMARK   73  A    between atoms: _175  and  _178
REMARK   74  A    between atoms: _178  and  _179
REMARK   75  A    between atoms: _182  and  _184
REMARK   76  A    between atoms: _184  and  _185
REMARK   77  A    between atoms: _184  and  _187
REMARK   78  A    between atoms: _187  and  _188
REMARK   79  A    between atoms: _194  and  _196
REMARK   80  A    between atoms: _196  and  _197
REMARK   81  A    between atoms: _196  and  _199
REMARK   82  A    between atoms: _199  and  _200
REMARK   83  A    between atoms: _205  and  _206
REMARK   84  A    between atoms: _208  and  _210
REMARK   85  A    between atoms: _210  and  _211
REMARK   86  A    between atoms: _213  and  _215
REMARK   87  A    between atoms: _215  and  _216
REMARK   88  A    between atoms: _218  and  _220
REMARK   89  A    between atoms: _220  and  _221
REMARK   90  A    between atoms: _220  and  _223
REMARK   91  A    between atoms: _223  and  _224
REMARK   92  A    between atoms: _234  and  _236
REMARK   93  A    between atoms: _236  and  _237
REMARK   94  A    between atoms: _236  and  _239
REMARK   95  A    between atoms: _239  and  _240
REMARK   96  A    between atoms: _245  and  _247
REMARK   97  A    between atoms: _247  and  _248
REMARK   98  A    between atoms: _247  and  _250
REMARK   99  A    between atoms: _250  and  _251
REMARK  100  A    between atoms: _251  and  _252
REMARK  101  A    between atoms: _257  and  _259
REMARK  102  A    between atoms: _259  and  _260
REMARK  103  A    between atoms: _263  and  _265
REMARK  104  A    between atoms: _265  and  _266
REMARK  105  A    between atoms: _265  and  _268
REMARK  106  A    between atoms: _268  and  _269
REMARK  107  A    between atoms: _274  and  _275
REMARK  108  A    between atoms: _277  and  _279
REMARK  109  A    between atoms: _279  and  _280
REMARK  110  A    between atoms: _279  and  _282
REMARK  111  A    between atoms: _282  and  _283
REMARK  112  A    between atoms: _286  and  _288
REMARK  113  A    between atoms: _288  and  _289
REMARK  114  A    between atoms: _288  and  _291
REMARK  115  A    between atoms: _291  and  _292
REMARK  116  A    between atoms: _297  and  _298
REMARK  117  A    between atoms: _300  and  _302
REMARK  118  A    between atoms: _302  and  _303
REMARK  119  A    between atoms: _302  and  _305
REMARK  120  A    between atoms: _305  and  _306
REMARK  121  A    between atoms: _306  and  _307
REMARK  122  A    between atoms: _307  and  _308
REMARK  123  A    between atoms: _317  and  _319
REMARK  124  A    between atoms: _319  and  _320
REMARK  125  A    between atoms: _319  and  _322
REMARK  126  A    between atoms: _322  and  _323
REMARK  127  A    between atoms: _323  and  _324
REMARK  128  A    between atoms: _324  and  _325
REMARK  129  A    between atoms: _325  and  _326
REMARK  130  A    between atoms: _330  and  _332
REMARK  131  A    between atoms: _332  and  _333
REMARK  132  A    between atoms: _332  and  _335
REMARK  133  A    between atoms: _335  and  _336
REMARK  134  A    between atoms: _336  and  _337
REMARK  135  A    between atoms: _340  and  _342
REMARK  136  A    between atoms: _342  and  _343
REMARK  137  A    between atoms: _342  and  _345
REMARK  138  A    between atoms: _348  and  _350
REMARK  139  A    between atoms: _350  and  _351
REMARK  140  A    between atoms: _350  and  _353
REMARK  141  A    between atoms: _353  and  _354
REMARK                            x       y       z     vdW  Elec       q    Type
REMARK                         _______ _______ _______ _____ _____    ______ ____
ROOT
ATOM      1  O   HOH     1     -13.306 -18.362  -3.100  0.00  0.00    +0.000 OA
ENDROOT
TORSDOF 0
