REMARK  Name = ../refined-set-2016/4h75/4h75_pocket.pdb
REMARK  236 active torsions:
REMARK  status: ('A' for Active; 'I' for Inactive)
REMARK    1  A    between atoms: _1  and  _3
REMARK    2  A    between atoms: _3  and  _4
REMARK    3  A    between atoms: _3  and  _6
REMARK    4  A    between atoms: _6  and  _7
REMARK    5  A    between atoms: _17  and  _19
REMARK    6  A    between atoms: _19  and  _20
REMARK    7  A    between atoms: _19  and  _22
REMARK    8  A    between atoms: _22  and  _23
REMARK    9  A    between atoms: _23  and  _24
REMARK   10  A    between atoms: _24  and  _25
REMARK   11  A    between atoms: _25  and  _26
REMARK   12  A    between atoms: _30  and  _32
REMARK   13  A    between atoms: _32  and  _33
REMARK   14  A    between atoms: _32  and  _35
REMARK   15  A    between atoms: _35  and  _36
REMARK   16  A    between atoms: _41  and  _42
REMARK   17  A    between atoms: _44  and  _46
REMARK   18  A    between atoms: _46  and  _47
REMARK   19  A    between atoms: _46  and  _49
REMARK   20  A    between atoms: _49  and  _50
REMARK   21  A    between atoms: _53  and  _55
REMARK   22  A    between atoms: _55  and  _56
REMARK   23  A    between atoms: _58  and  _60
REMARK   24  A    between atoms: _60  and  _61
REMARK   25  A    between atoms: _60  and  _63
REMARK   26  A    between atoms: _63  and  _64
REMARK   27  A    between atoms: _70  and  _72
REMARK   28  A    between atoms: _72  and  _73
REMARK   29  A    between atoms: _72  and  _75
REMARK   30  A    between atoms: _75  and  _76
REMARK   31  A    between atoms: _79  and  _81
REMARK   32  A    between atoms: _81  and  _82
REMARK   33  A    between atoms: _81  and  _84
REMARK   34  A    between atoms: _86  and  _88
REMARK   35  A    between atoms: _88  and  _89
REMARK   36  A    between atoms: _88  and  _91
REMARK   37  A    between atoms: _94  and  _96
REMARK   38  A    between atoms: _96  and  _97
REMARK   39  A    between atoms: _96  and  _99
REMARK   40  A    between atoms: _99  and  _100
REMARK   41  A    between atoms: _105  and  _106
REMARK   42  A    between atoms: _108  and  _110
REMARK   43  A    between atoms: _110  and  _111
REMARK   44  A    between atoms: _110  and  _113
REMARK   45  A    between atoms: _113  and  _114
REMARK   46  A    between atoms: _119  and  _121
REMARK   47  A    between atoms: _121  and  _122
REMARK   48  A    between atoms: _121  and  _124
REMARK   49  A    between atoms: _124  and  _125
REMARK   50  A    between atoms: _125  and  _126
REMARK   51  A    between atoms: _128  and  _130
REMARK   52  A    between atoms: _130  and  _131
REMARK   53  A    between atoms: _130  and  _133
REMARK   54  A    between atoms: _133  and  _134
REMARK   55  A    between atoms: _140  and  _142
REMARK   56  A    between atoms: _142  and  _143
REMARK   57  A    between atoms: _142  and  _145
REMARK   58  A    between atoms: _145  and  _146
REMARK   59  A    between atoms: _146  and  _147
REMARK   60  A    between atoms: _150  and  _152
REMARK   61  A    between atoms: _152  and  _153
REMARK   62  A    between atoms: _152  and  _155
REMARK   63  A    between atoms: _155  and  _156
REMARK   64  A    between atoms: _159  and  _161
REMARK   65  A    between atoms: _161  and  _162
REMARK   66  A    between atoms: _161  and  _164
REMARK   67  A    between atoms: _164  and  _165
REMARK   68  A    between atoms: _165  and  _166
REMARK   69  A    between atoms: _169  and  _171
REMARK   70  A    between atoms: _171  and  _172
REMARK   71  A    between atoms: _171  and  _174
REMARK   72  A    between atoms: _174  and  _175
REMARK   73  A    between atoms: _178  and  _180
REMARK   74  A    between atoms: _180  and  _181
REMARK   75  A    between atoms: _183  and  _185
REMARK   76  A    between atoms: _185  and  _186
REMARK   77  A    between atoms: _185  and  _188
REMARK   78  A    between atoms: _188  and  _189
REMARK   79  A    between atoms: _191  and  _193
REMARK   80  A    between atoms: _193  and  _194
REMARK   81  A    between atoms: _193  and  _196
REMARK   82  A    between atoms: _196  and  _197
REMARK   83  A    between atoms: _197  and  _198
REMARK   84  A    between atoms: _198  and  _199
REMARK   85  A    between atoms: _199  and  _200
REMARK   86  A    between atoms: _204  and  _206
REMARK   87  A    between atoms: _206  and  _207
REMARK   88  A    between atoms: _206  and  _209
REMARK   89  A    between atoms: _209  and  _210
REMARK   90  A    between atoms: _213  and  _215
REMARK   91  A    between atoms: _215  and  _216
REMARK   92  A    between atoms: _215  and  _218
REMARK   93  A    between atoms: _218  and  _219
REMARK   94  A    between atoms: _219  and  _220
REMARK   95  A    between atoms: _223  and  _225
REMARK   96  A    between atoms: _225  and  _226
REMARK   97  A    between atoms: _225  and  _228
REMARK   98  A    between atoms: _228  and  _229
REMARK   99  A    between atoms: _239  and  _241
REMARK  100  A    between atoms: _241  and  _242
REMARK  101  A    between atoms: _241  and  _244
REMARK  102  A    between atoms: _244  and  _245
REMARK  103  A    between atoms: _245  and  _246
REMARK  104  A    between atoms: _246  and  _247
REMARK  105  A    between atoms: _256  and  _258
REMARK  106  A    between atoms: _258  and  _259
REMARK  107  A    between atoms: _258  and  _261
REMARK  108  A    between atoms: _261  and  _262
REMARK  109  A    between atoms: _265  and  _267
REMARK  110  A    between atoms: _267  and  _268
REMARK  111  A    between atoms: _267  and  _270
REMARK  112  A    between atoms: _270  and  _271
REMARK  113  A    between atoms: _281  and  _283
REMARK  114  A    between atoms: _283  and  _284
REMARK  115  A    between atoms: _283  and  _286
REMARK  116  A    between atoms: _286  and  _287
REMARK  117  A    between atoms: _293  and  _295
REMARK  118  A    between atoms: _295  and  _296
REMARK  119  A    between atoms: _295  and  _298
REMARK  120  A    between atoms: _298  and  _299
REMARK  121  A    between atoms: _302  and  _304
REMARK  122  A    between atoms: _304  and  _305
REMARK  123  A    between atoms: _304  and  _307
REMARK  124  A    between atoms: _307  and  _308
REMARK  125  A    between atoms: _311  and  _313
REMARK  126  A    between atoms: _313  and  _314
REMARK  127  A    between atoms: _313  and  _316
REMARK  128  A    between atoms: _316  and  _317
REMARK  129  A    between atoms: _322  and  _323
REMARK  130  A    between atoms: _325  and  _327
REMARK  131  A    between atoms: _327  and  _328
REMARK  132  A    between atoms: _327  and  _330
REMARK  133  A    between atoms: _330  and  _331
REMARK  134  A    between atoms: _331  and  _332
REMARK  135  A    between atoms: _335  and  _337
REMARK  136  A    between atoms: _337  and  _338
REMARK  137  A    between atoms: _337  and  _340
REMARK  138  A    between atoms: _340  and  _341
REMARK  139  A    between atoms: _341  and  _342
REMARK  140  A    between atoms: _342  and  _343
REMARK  141  A    between atoms: _343  and  _344
REMARK  142  A    between atoms: _348  and  _350
REMARK  143  A    between atoms: _350  and  _351
REMARK  144  A    between atoms: _350  and  _353
REMARK  145  A    between atoms: _353  and  _354
REMARK  146  A    between atoms: _358  and  _359
REMARK  147  A    between atoms: _364  and  _366
REMARK  148  A    between atoms: _366  and  _367
REMARK  149  A    between atoms: _366  and  _369
REMARK  150  A    between atoms: _372  and  _374
REMARK  151  A    between atoms: _374  and  _375
REMARK  152  A    between atoms: _374  and  _377
REMARK  153  A    between atoms: _377  and  _378
REMARK  154  A    between atoms: _381  and  _383
REMARK  155  A    between atoms: _383  and  _384
REMARK  156  A    between atoms: _383  and  _386
REMARK  157  A    between atoms: _386  and  _387
REMARK  158  A    between atoms: _392  and  _393
REMARK  159  A    between atoms: _395  and  _397
REMARK  160  A    between atoms: _397  and  _398
REMARK  161  A    between atoms: _397  and  _400
REMARK  162  A    between atoms: _400  and  _401
REMARK  163  A    between atoms: _401  and  _402
REMARK  164  A    between atoms: _404  and  _406
REMARK  165  A    between atoms: _406  and  _407
REMARK  166  A    between atoms: _406  and  _409
REMARK  167  A    between atoms: _409  and  _410
REMARK  168  A    between atoms: _415  and  _416
REMARK  169  A    between atoms: _418  and  _420
REMARK  170  A    between atoms: _420  and  _421
REMARK  171  A    between atoms: _420  and  _423
REMARK  172  A    between atoms: _423  and  _424
REMARK  173  A    between atoms: _424  and  _425
REMARK  174  A    between atoms: _430  and  _432
REMARK  175  A    between atoms: _432  and  _433
REMARK  176  A    between atoms: _432  and  _435
REMARK  177  A    between atoms: _435  and  _436
REMARK  178  A    between atoms: _439  and  _441
REMARK  179  A    between atoms: _441  and  _442
REMARK  180  A    between atoms: _441  and  _444
REMARK  181  A    between atoms: _444  and  _445
REMARK  182  A    between atoms: _448  and  _450
REMARK  183  A    between atoms: _450  and  _451
REMARK  184  A    between atoms: _450  and  _453
REMARK  185  A    between atoms: _453  and  _454
REMARK  186  A    between atoms: _457  and  _459
REMARK  187  A    between atoms: _459  and  _460
REMARK  188  A    between atoms: _459  and  _462
REMARK  189  A    between atoms: _462  and  _463
REMARK  190  A    between atoms: _466  and  _468
REMARK  191  A    between atoms: _468  and  _469
REMARK  192  A    between atoms: _468  and  _471
REMARK  193  A    between atoms: _471  and  _472
REMARK  194  A    between atoms: _477  and  _478
REMARK  195  A    between atoms: _480  and  _482
REMARK  196  A    between atoms: _482  and  _483
REMARK  197  A    between atoms: _482  and  _485
REMARK  198  A    between atoms: _485  and  _486
REMARK  199  A    between atoms: _486  and  _487
REMARK  200  A    between atoms: _490  and  _492
REMARK  201  A    between atoms: _492  and  _493
REMARK  202  A    between atoms: _495  and  _497
REMARK  203  A    between atoms: _497  and  _498
REMARK  204  A    between atoms: _497  and  _500
REMARK  205  A    between atoms: _500  and  _501
REMARK  206  A    between atoms: _504  and  _506
REMARK  207  A    between atoms: _506  and  _507
REMARK  208  A    between atoms: _506  and  _509
REMARK  209  A    between atoms: _509  and  _510
REMARK  210  A    between atoms: _513  and  _515
REMARK  211  A    between atoms: _515  and  _516
REMARK  212  A    between atoms: _515  and  _518
REMARK  213  A    between atoms: _518  and  _519
REMARK  214  A    between atoms: _519  and  _520
REMARK  215  A    between atoms: _520  and  _521
REMARK  216  A    between atoms: _530  and  _532
REMARK  217  A    between atoms: _532  and  _533
REMARK  218  A    between atoms: _532  and  _535
REMARK  219  A    between atoms: _535  and  _536
REMARK  220  A    between atoms: _539  and  _541
REMARK  221  A    between atoms: _541  and  _542
REMARK  222  A    between atoms: _541  and  _544
REMARK  223  A    between atoms: _544  and  _545
REMARK  224  A    between atoms: _551  and  _553
REMARK  225  A    between atoms: _553  and  _554
REMARK  226  A    between atoms: _553  and  _556
REMARK  227  A    between atoms: _556  and  _557
REMARK  228  A    between atoms: _562  and  _564
REMARK  229  A    between atoms: _564  and  _565
REMARK  230  A    between atoms: _564  and  _567
REMARK  231  A    between atoms: _567  and  _568
REMARK  232  A    between atoms: _571  and  _573
REMARK  233  A    between atoms: _573  and  _574
REMARK  234  A    between atoms: _573  and  _576
REMARK  235  A    between atoms: _576  and  _577
REMARK  236  A    between atoms: _582  and  _583
REMARK                            x       y       z     vdW  Elec       q    Type
REMARK                         _______ _______ _______ _____ _____    ______ ____
ROOT
ATOM      1  CG  TRP A   1      32.174   7.545   2.508  0.00  0.00    -0.002 A 
ATOM      2  CD1 TRP A   1      33.225   6.703   2.349  0.00  0.00    +0.068 A 
ATOM      3  NE1 TRP A   1      32.779   5.424   2.114  0.00  0.00    -0.352 N 
ATOM      4  CE2 TRP A   1      31.409   5.433   2.107  0.00  0.00    +0.056 A 
ATOM      5  CZ2 TRP A   1      30.507   4.391   1.920  0.00  0.00    +0.017 A 
ATOM      6  CH2 TRP A   1      29.171   4.699   1.971  0.00  0.00    +0.001 A 
ATOM      7  CZ3 TRP A   1      28.730   6.010   2.204  0.00  0.00    +0.000 A 
ATOM      8  CE3 TRP A   1      29.626   7.046   2.386  0.00  0.00    +0.001 A 
ATOM      9  HE1 TRP A   1      33.381   4.589   1.966  0.00  0.00    +0.166 HD
ATOM     10  CD2 TRP A   1      30.995   6.758   2.345  0.00  0.00    +0.013 A 
ENDROOT
BRANCH   1  11
ATOM     11  CB  TRP A   1      32.230   9.014   2.708  0.00  0.00    +0.053 C 
BRANCH  11  12
ATOM     12  CA  TRP A   1      32.365   9.700   1.343  0.00  0.00    +0.137 C 
BRANCH  12  13
ATOM     13  N   TRP A   1      33.578   9.232   0.670  0.00  0.00    -0.239 NA
ATOM     14  H   TRP A   1      34.496   9.598   0.994  0.00  0.00    +0.142 HD
ENDBRANCH  12  13
BRANCH  12  15
ATOM     15  C   TRP A   1      32.416  11.206   1.537  0.00  0.00    +0.224 C 
ATOM     16  O   TRP A   1      33.456  11.759   1.883  0.00  0.00    -0.287 OA
ENDBRANCH  12  15
ENDBRANCH  11  12
ENDBRANCH   1  11
TORSDOF 4
REMARK  Name = ../refined-set-2016/4h75/4h75_pocket.pdb
REMARK  236 active torsions:
REMARK  status: ('A' for Active; 'I' for Inactive)
REMARK    1  A    between atoms: _1  and  _3
REMARK    2  A    between atoms: _3  and  _4
REMARK    3  A    between atoms: _3  and  _6
REMARK    4  A    between atoms: _6  and  _7
REMARK    5  A    between atoms: _17  and  _19
REMARK    6  A    between atoms: _19  and  _20
REMARK    7  A    between atoms: _19  and  _22
REMARK    8  A    between atoms: _22  and  _23
REMARK    9  A    between atoms: _23  and  _24
REMARK   10  A    between atoms: _24  and  _25
REMARK   11  A    between atoms: _25  and  _26
REMARK   12  A    between atoms: _30  and  _32
REMARK   13  A    between atoms: _32  and  _33
REMARK   14  A    between atoms: _32  and  _35
REMARK   15  A    between atoms: _35  and  _36
REMARK   16  A    between atoms: _41  and  _42
REMARK   17  A    between atoms: _44  and  _46
REMARK   18  A    between atoms: _46  and  _47
REMARK   19  A    between atoms: _46  and  _49
REMARK   20  A    between atoms: _49  and  _50
REMARK   21  A    between atoms: _53  and  _55
REMARK   22  A    between atoms: _55  and  _56
REMARK   23  A    between atoms: _58  and  _60
REMARK   24  A    between atoms: _60  and  _61
REMARK   25  A    between atoms: _60  and  _63
REMARK   26  A    between atoms: _63  and  _64
REMARK   27  A    between atoms: _70  and  _72
REMARK   28  A    between atoms: _72  and  _73
REMARK   29  A    between atoms: _72  and  _75
REMARK   30  A    between atoms: _75  and  _76
REMARK   31  A    between atoms: _79  and  _81
REMARK   32  A    between atoms: _81  and  _82
REMARK   33  A    between atoms: _81  and  _84
REMARK   34  A    between atoms: _86  and  _88
REMARK   35  A    between atoms: _88  and  _89
REMARK   36  A    between atoms: _88  and  _91
REMARK   37  A    between atoms: _94  and  _96
REMARK   38  A    between atoms: _96  and  _97
REMARK   39  A    between atoms: _96  and  _99
REMARK   40  A    between atoms: _99  and  _100
REMARK   41  A    between atoms: _105  and  _106
REMARK   42  A    between atoms: _108  and  _110
REMARK   43  A    between atoms: _110  and  _111
REMARK   44  A    between atoms: _110  and  _113
REMARK   45  A    between atoms: _113  and  _114
REMARK   46  A    between atoms: _119  and  _121
REMARK   47  A    between atoms: _121  and  _122
REMARK   48  A    between atoms: _121  and  _124
REMARK   49  A    between atoms: _124  and  _125
REMARK   50  A    between atoms: _125  and  _126
REMARK   51  A    between atoms: _128  and  _130
REMARK   52  A    between atoms: _130  and  _131
REMARK   53  A    between atoms: _130  and  _133
REMARK   54  A    between atoms: _133  and  _134
REMARK   55  A    between atoms: _140  and  _142
REMARK   56  A    between atoms: _142  and  _143
REMARK   57  A    between atoms: _142  and  _145
REMARK   58  A    between atoms: _145  and  _146
REMARK   59  A    between atoms: _146  and  _147
REMARK   60  A    between atoms: _150  and  _152
REMARK   61  A    between atoms: _152  and  _153
REMARK   62  A    between atoms: _152  and  _155
REMARK   63  A    between atoms: _155  and  _156
REMARK   64  A    between atoms: _159  and  _161
REMARK   65  A    between atoms: _161  and  _162
REMARK   66  A    between atoms: _161  and  _164
REMARK   67  A    between atoms: _164  and  _165
REMARK   68  A    between atoms: _165  and  _166
REMARK   69  A    between atoms: _169  and  _171
REMARK   70  A    between atoms: _171  and  _172
REMARK   71  A    between atoms: _171  and  _174
REMARK   72  A    between atoms: _174  and  _175
REMARK   73  A    between atoms: _178  and  _180
REMARK   74  A    between atoms: _180  and  _181
REMARK   75  A    between atoms: _183  and  _185
REMARK   76  A    between atoms: _185  and  _186
REMARK   77  A    between atoms: _185  and  _188
REMARK   78  A    between atoms: _188  and  _189
REMARK   79  A    between atoms: _191  and  _193
REMARK   80  A    between atoms: _193  and  _194
REMARK   81  A    between atoms: _193  and  _196
REMARK   82  A    between atoms: _196  and  _197
REMARK   83  A    between atoms: _197  and  _198
REMARK   84  A    between atoms: _198  and  _199
REMARK   85  A    between atoms: _199  and  _200
REMARK   86  A    between atoms: _204  and  _206
REMARK   87  A    between atoms: _206  and  _207
REMARK   88  A    between atoms: _206  and  _209
REMARK   89  A    between atoms: _209  and  _210
REMARK   90  A    between atoms: _213  and  _215
REMARK   91  A    between atoms: _215  and  _216
REMARK   92  A    between atoms: _215  and  _218
REMARK   93  A    between atoms: _218  and  _219
REMARK   94  A    between atoms: _219  and  _220
REMARK   95  A    between atoms: _223  and  _225
REMARK   96  A    between atoms: _225  and  _226
REMARK   97  A    between atoms: _225  and  _228
REMARK   98  A    between atoms: _228  and  _229
REMARK   99  A    between atoms: _239  and  _241
REMARK  100  A    between atoms: _241  and  _242
REMARK  101  A    between atoms: _241  and  _244
REMARK  102  A    between atoms: _244  and  _245
REMARK  103  A    between atoms: _245  and  _246
REMARK  104  A    between atoms: _246  and  _247
REMARK  105  A    between atoms: _256  and  _258
REMARK  106  A    between atoms: _258  and  _259
REMARK  107  A    between atoms: _258  and  _261
REMARK  108  A    between atoms: _261  and  _262
REMARK  109  A    between atoms: _265  and  _267
REMARK  110  A    between atoms: _267  and  _268
REMARK  111  A    between atoms: _267  and  _270
REMARK  112  A    between atoms: _270  and  _271
REMARK  113  A    between atoms: _281  and  _283
REMARK  114  A    between atoms: _283  and  _284
REMARK  115  A    between atoms: _283  and  _286
REMARK  116  A    between atoms: _286  and  _287
REMARK  117  A    between atoms: _293  and  _295
REMARK  118  A    between atoms: _295  and  _296
REMARK  119  A    between atoms: _295  and  _298
REMARK  120  A    between atoms: _298  and  _299
REMARK  121  A    between atoms: _302  and  _304
REMARK  122  A    between atoms: _304  and  _305
REMARK  123  A    between atoms: _304  and  _307
REMARK  124  A    between atoms: _307  and  _308
REMARK  125  A    between atoms: _311  and  _313
REMARK  126  A    between atoms: _313  and  _314
REMARK  127  A    between atoms: _313  and  _316
REMARK  128  A    between atoms: _316  and  _317
REMARK  129  A    between atoms: _322  and  _323
REMARK  130  A    between atoms: _325  and  _327
REMARK  131  A    between atoms: _327  and  _328
REMARK  132  A    between atoms: _327  and  _330
REMARK  133  A    between atoms: _330  and  _331
REMARK  134  A    between atoms: _331  and  _332
REMARK  135  A    between atoms: _335  and  _337
REMARK  136  A    between atoms: _337  and  _338
REMARK  137  A    between atoms: _337  and  _340
REMARK  138  A    between atoms: _340  and  _341
REMARK  139  A    between atoms: _341  and  _342
REMARK  140  A    between atoms: _342  and  _343
REMARK  141  A    between atoms: _343  and  _344
REMARK  142  A    between atoms: _348  and  _350
REMARK  143  A    between atoms: _350  and  _351
REMARK  144  A    between atoms: _350  and  _353
REMARK  145  A    between atoms: _353  and  _354
REMARK  146  A    between atoms: _358  and  _359
REMARK  147  A    between atoms: _364  and  _366
REMARK  148  A    between atoms: _366  and  _367
REMARK  149  A    between atoms: _366  and  _369
REMARK  150  A    between atoms: _372  and  _374
REMARK  151  A    between atoms: _374  and  _375
REMARK  152  A    between atoms: _374  and  _377
REMARK  153  A    between atoms: _377  and  _378
REMARK  154  A    between atoms: _381  and  _383
REMARK  155  A    between atoms: _383  and  _384
REMARK  156  A    between atoms: _383  and  _386
REMARK  157  A    between atoms: _386  and  _387
REMARK  158  A    between atoms: _392  and  _393
REMARK  159  A    between atoms: _395  and  _397
REMARK  160  A    between atoms: _397  and  _398
REMARK  161  A    between atoms: _397  and  _400
REMARK  162  A    between atoms: _400  and  _401
REMARK  163  A    between atoms: _401  and  _402
REMARK  164  A    between atoms: _404  and  _406
REMARK  165  A    between atoms: _406  and  _407
REMARK  166  A    between atoms: _406  and  _409
REMARK  167  A    between atoms: _409  and  _410
REMARK  168  A    between atoms: _415  and  _416
REMARK  169  A    between atoms: _418  and  _420
REMARK  170  A    between atoms: _420  and  _421
REMARK  171  A    between atoms: _420  and  _423
REMARK  172  A    between atoms: _423  and  _424
REMARK  173  A    between atoms: _424  and  _425
REMARK  174  A    between atoms: _430  and  _432
REMARK  175  A    between atoms: _432  and  _433
REMARK  176  A    between atoms: _432  and  _435
REMARK  177  A    between atoms: _435  and  _436
REMARK  178  A    between atoms: _439  and  _441
REMARK  179  A    between atoms: _441  and  _442
REMARK  180  A    between atoms: _441  and  _444
REMARK  181  A    between atoms: _444  and  _445
REMARK  182  A    between atoms: _448  and  _450
REMARK  183  A    between atoms: _450  and  _451
REMARK  184  A    between atoms: _450  and  _453
REMARK  185  A    between atoms: _453  and  _454
REMARK  186  A    between atoms: _457  and  _459
REMARK  187  A    between atoms: _459  and  _460
REMARK  188  A    between atoms: _459  and  _462
REMARK  189  A    between atoms: _462  and  _463
REMARK  190  A    between atoms: _466  and  _468
REMARK  191  A    between atoms: _468  and  _469
REMARK  192  A    between atoms: _468  and  _471
REMARK  193  A    between atoms: _471  and  _472
REMARK  194  A    between atoms: _477  and  _478
REMARK  195  A    between atoms: _480  and  _482
REMARK  196  A    between atoms: _482  and  _483
REMARK  197  A    between atoms: _482  and  _485
REMARK  198  A    between atoms: _485  and  _486
REMARK  199  A    between atoms: _486  and  _487
REMARK  200  A    between atoms: _490  and  _492
REMARK  201  A    between atoms: _492  and  _493
REMARK  202  A    between atoms: _495  and  _497
REMARK  203  A    between atoms: _497  and  _498
REMARK  204  A    between atoms: _497  and  _500
REMARK  205  A    between atoms: _500  and  _501
REMARK  206  A    between atoms: _504  and  _506
REMARK  207  A    between atoms: _506  and  _507
REMARK  208  A    between atoms: _506  and  _509
REMARK  209  A    between atoms: _509  and  _510
REMARK  210  A    between atoms: _513  and  _515
REMARK  211  A    between atoms: _515  and  _516
REMARK  212  A    between atoms: _515  and  _518
REMARK  213  A    between atoms: _518  and  _519
REMARK  214  A    between atoms: _519  and  _520
REMARK  215  A    between atoms: _520  and  _521
REMARK  216  A    between atoms: _530  and  _532
REMARK  217  A    between atoms: _532  and  _533
REMARK  218  A    between atoms: _532  and  _535
REMARK  219  A    between atoms: _535  and  _536
REMARK  220  A    between atoms: _539  and  _541
REMARK  221  A    between atoms: _541  and  _542
REMARK  222  A    between atoms: _541  and  _544
REMARK  223  A    between atoms: _544  and  _545
REMARK  224  A    between atoms: _551  and  _553
REMARK  225  A    between atoms: _553  and  _554
REMARK  226  A    between atoms: _553  and  _556
REMARK  227  A    between atoms: _556  and  _557
REMARK  228  A    between atoms: _562  and  _564
REMARK  229  A    between atoms: _564  and  _565
REMARK  230  A    between atoms: _564  and  _567
REMARK  231  A    between atoms: _567  and  _568
REMARK  232  A    between atoms: _571  and  _573
REMARK  233  A    between atoms: _573  and  _574
REMARK  234  A    between atoms: _573  and  _576
REMARK  235  A    between atoms: _576  and  _577
REMARK  236  A    between atoms: _582  and  _583
REMARK                            x       y       z     vdW  Elec       q    Type
REMARK                         _______ _______ _______ _____ _____    ______ ____
ROOT
ATOM      1  CA  PHE A   5      22.727   7.935   1.686  0.00  0.00    +0.153 C 
ENDROOT
BRANCH   1   2
ATOM      2  C   PHE A   5      21.631   8.328   2.675  0.00  0.00    +0.241 C 
ATOM      3  O   PHE A   5      21.816   9.239   3.455  0.00  0.00    -0.273 OA
ATOM      4  N   ASP A   6      20.502   7.616   2.645  0.00  0.00    -0.297 N 
ATOM      5  H   ASP A   6      20.458   6.760   2.056  0.00  0.00    +0.150 HD
BRANCH   4   6
ATOM      6  CA  ASP A   6      19.326   8.010   3.420  0.00  0.00    +0.160 C 
BRANCH   6   7
ATOM      7  C   ASP A   6      19.465   7.811   4.924  0.00  0.00    +0.241 C 
ATOM      8  O   ASP A   6      18.860   8.546   5.702  0.00  0.00    -0.273 OA
ATOM      9  N   CYS A   7      20.242   6.807   5.330  0.00  0.00    -0.296 N 
ATOM     10  H   CYS A   7      20.705   6.207   4.618  0.00  0.00    +0.150 HD
BRANCH   9  11
ATOM     11  CA  CYS A   7      20.462   6.525   6.755  0.00  0.00    +0.160 C 
BRANCH  11  12
ATOM     12  C   CYS A   7      21.456   7.471   7.401  0.00  0.00    +0.242 C 
ATOM     13  N   VAL A   8      21.123   7.962   8.596  0.00  0.00    -0.297 N 
ATOM     14  H   VAL A   8      20.160   7.817   8.961  0.00  0.00    +0.150 HD
ATOM     15  O   CYS A   7      22.516   7.729   6.847  0.00  0.00    -0.273 OA
BRANCH  13  16
ATOM     16  CA  VAL A   8      22.095   8.701   9.399  0.00  0.00    +0.149 C 
BRANCH  16  17
ATOM     17  C   VAL A   8      23.091   7.679   9.969  0.00  0.00    +0.241 C 
ATOM     18  O   VAL A   8      22.692   6.630  10.483  0.00  0.00    -0.273 OA
ATOM     19  N   TYR A   9      24.386   7.957   9.856  0.00  0.00    -0.298 N 
ATOM     20  H   TYR A   9      24.691   8.818   9.359  0.00  0.00    +0.150 HD
BRANCH  19  21
ATOM     21  CA  TYR A   9      25.385   7.051  10.431  0.00  0.00    +0.141 C 
BRANCH  21  22
ATOM     22  C   TYR A   9      26.111   7.662  11.629  0.00  0.00    +0.227 C 
ATOM     23  O   TYR A   9      26.259   8.880  11.727  0.00  0.00    -0.286 OA
ENDBRANCH  21  22
BRANCH  21  24
ATOM     24  CB  TYR A   9      26.412   6.598   9.381  0.00  0.00    +0.054 C 
BRANCH  24  25
ATOM     25  CG  TYR A   9      25.843   5.809   8.220  0.00  0.00    -0.020 A 
ATOM     26  CD2 TYR A   9      25.358   4.522   8.399  0.00  0.00    -0.001 A 
ATOM     27  CE2 TYR A   9      24.845   3.785   7.327  0.00  0.00    +0.036 A 
ATOM     28  CZ  TYR A   9      24.808   4.345   6.066  0.00  0.00    +0.134 A 
ATOM     29  CE1 TYR A   9      25.288   5.618   5.859  0.00  0.00    +0.036 A 
ATOM     30  CD1 TYR A   9      25.798   6.352   6.936  0.00  0.00    -0.001 A 
BRANCH  28  31
ATOM     31  OH  TYR A   9      24.300   3.630   5.006  0.00  0.00    -0.506 OA
ATOM     32  HH  TYR A   9      23.356   3.395   5.190  0.00  0.00    +0.292 HD
ENDBRANCH  28  31
ENDBRANCH  24  25
ENDBRANCH  21  24
ENDBRANCH  19  21
ENDBRANCH  16  17
BRANCH  16  33
ATOM     33  CB  VAL A   8      21.424   9.513  10.536  0.00  0.00    +0.027 C 
ATOM     34  CG2 VAL A   8      22.472  10.192  11.428  0.00  0.00    +0.002 C 
ATOM     35  CG1 VAL A   8      20.439  10.567   9.962  0.00  0.00    +0.002 C 
ENDBRANCH  16  33
ENDBRANCH  13  16
ENDBRANCH  11  12
BRANCH  11  36
ATOM     36  CB  CYS A   7      21.010   5.101   6.959  0.00  0.00    +0.098 C 
ATOM     37  SG  CYS A   7      19.826   3.852   6.612  0.00  0.00    -0.080 S 
ENDBRANCH  11  36
ENDBRANCH   9  11
ENDBRANCH   6   7
BRANCH   6  38
ATOM     38  CB  ASP A   6      18.065   7.287   2.932  0.00  0.00    +0.143 C 
BRANCH  38  39
ATOM     39  CG  ASP A   6      17.675   7.673   1.521  0.00  0.00    +0.367 C 
ATOM     40  OD2 ASP A   6      18.115   8.738   1.040  0.00  0.00    -0.246 OA
ATOM     41  OD1 ASP A   6      16.911   6.907   0.898  0.00  0.00    -0.246 OA
ENDBRANCH  38  39
ENDBRANCH   6  38
ENDBRANCH   4   6
ENDBRANCH   1   2
BRANCH   1  43
ATOM     42  C   GLY A   4      22.970   8.898  -0.527  0.00  0.00    +0.243 C 
ATOM     43  N   PHE A   5      23.034   9.049   0.791  0.00  0.00    -0.297 N 
ATOM     44  H   PHE A   5      23.306   9.970   1.191  0.00  0.00    +0.150 HD
ATOM     45  O   GLY A   4      22.636   7.834  -1.057  0.00  0.00    -0.273 OA
BRANCH  42  46
ATOM     46  CA  GLY A   4      23.334  10.108  -1.373  0.00  0.00    +0.176 C 
BRANCH  46  49
ATOM     47  C   ASP A   3      24.964  11.535  -0.268  0.00  0.00    +0.241 C 
ATOM     48  O   ASP A   3      25.894  10.777  -0.542  0.00  0.00    -0.273 OA
ATOM     49  N   GLY A   4      23.705  11.288  -0.605  0.00  0.00    -0.295 N 
ATOM     50  H   GLY A   4      22.963  11.955  -0.313  0.00  0.00    +0.150 HD
BRANCH  47  51
ATOM     51  CA  ASP A   3      25.229  12.834   0.482  0.00  0.00    +0.160 C 
BRANCH  51  54
ATOM     52  C   TYR A   2      25.433  11.781   2.672  0.00  0.00    +0.241 C 
ATOM     53  O   TYR A   2      24.280  11.296   2.610  0.00  0.00    -0.273 OA
ATOM     54  N   ASP A   3      25.968  12.522   1.703  0.00  0.00    -0.297 N 
ATOM     55  H   ASP A   3      26.935  12.887   1.818  0.00  0.00    +0.150 HD
BRANCH  52  56
ATOM     56  CA  TYR A   2      26.307  11.540   3.893  0.00  0.00    +0.153 C 
BRANCH  56  59
ATOM     57  C   LYS A   1      25.309  12.707   5.771  0.00  0.00    +0.238 C 
ATOM     58  O   LYS A   1      25.804  13.777   5.428  0.00  0.00    -0.274 OA
ATOM     59  N   TYR A   2      25.502  11.574   5.104  0.00  0.00    -0.297 N 
ATOM     60  H   TYR A   2      25.070  10.695   5.454  0.00  0.00    +0.150 HD
BRANCH  57  61
ATOM     61  CA  LYS A   1      24.416  12.627   6.989  0.00  0.00    +0.145 C 
BRANCH  61  62
ATOM     62  N   LYS A   1      25.251  12.885   8.148  0.00  0.00    -0.238 NA
ATOM     63  H   LYS A   1      25.525  13.865   8.363  0.00  0.00    +0.142 HD
ENDBRANCH  61  62
BRANCH  61  64
ATOM     64  CB  LYS A   1      23.289  13.672   6.893  0.00  0.00    +0.026 C 
BRANCH  64  65
ATOM     65  CG  LYS A   1      22.357  13.500   5.684  0.00  0.00    -0.000 C 
BRANCH  65  66
ATOM     66  CD  LYS A   1      21.696  12.093   5.684  0.00  0.00    -0.024 C 
BRANCH  66  67
ATOM     67  CE  LYS A   1      20.610  11.981   4.580  0.00  0.00    -0.086 C 
BRANCH  67  68
ATOM     68  NZ  LYS A   1      21.149  11.930   3.175  0.00  0.00    +0.380 N 
ATOM     69  HZ1 LYS A   1      21.770  11.102   3.073  0.00  0.00    -0.089 HD
ATOM     70  HZ2 LYS A   1      21.690  12.797   2.981  0.00  0.00    -0.089 HD
ATOM     71  HZ3 LYS A   1      20.358  11.856   2.504  0.00  0.00    -0.089 HD
ENDBRANCH  67  68
ENDBRANCH  66  67
ENDBRANCH  65  66
ENDBRANCH  64  65
ENDBRANCH  61  64
ENDBRANCH  57  61
ENDBRANCH  56  59
BRANCH  56  72
ATOM     72  CB  TYR A   2      27.020  10.184   3.778  0.00  0.00    +0.055 C 
BRANCH  72  73
ATOM     73  CG  TYR A   2      28.137  10.031   4.766  0.00  0.00    -0.020 A 
ATOM     74  CD2 TYR A   2      27.949   9.315   5.949  0.00  0.00    -0.001 A 
ATOM     75  CE2 TYR A   2      28.958   9.165   6.858  0.00  0.00    +0.036 A 
ATOM     76  CZ  TYR A   2      30.188   9.729   6.612  0.00  0.00    +0.134 A 
ATOM     77  CE1 TYR A   2      30.412  10.466   5.454  0.00  0.00    +0.036 A 
ATOM     78  CD1 TYR A   2      29.382  10.608   4.532  0.00  0.00    -0.001 A 
BRANCH  76  79
ATOM     79  OH  TYR A   2      31.175   9.571   7.550  0.00  0.00    -0.506 OA
ATOM     80  HH  TYR A   2      31.953   9.120   7.136  0.00  0.00    +0.292 HD
ENDBRANCH  76  79
ENDBRANCH  72  73
ENDBRANCH  56  72
ENDBRANCH  52  56
ENDBRANCH  51  54
BRANCH  51  81
ATOM     81  CB  ASP A   3      26.011  13.784  -0.462  0.00  0.00    +0.143 C 
BRANCH  81  82
ATOM     82  CG  ASP A   3      26.483  15.080   0.218  0.00  0.00    +0.367 C 
ATOM     83  OD2 ASP A   3      26.019  15.420   1.325  0.00  0.00    -0.246 OA
ATOM     84  OD1 ASP A   3      27.329  15.782  -0.381  0.00  0.00    -0.246 OA
ENDBRANCH  81  82
ENDBRANCH  51  81
ENDBRANCH  47  51
ENDBRANCH  46  49
ENDBRANCH  42  46
ENDBRANCH   1  43
BRANCH   1  85
ATOM     85  CB  PHE A   5      24.013   7.429   2.369  0.00  0.00    +0.055 C 
BRANCH  85  86
ATOM     86  CG  PHE A   5      25.028   6.918   1.376  0.00  0.00    -0.020 A 
ATOM     87  CD2 PHE A   5      25.060   5.573   1.035  0.00  0.00    -0.004 A 
ATOM     88  CE2 PHE A   5      25.949   5.103   0.075  0.00  0.00    -0.000 A 
ATOM     89  CZ  PHE A   5      26.815   5.974  -0.555  0.00  0.00    -0.000 A 
ATOM     90  CE1 PHE A   5      26.793   7.330  -0.234  0.00  0.00    -0.000 A 
ATOM     91  CD1 PHE A   5      25.893   7.793   0.723  0.00  0.00    -0.004 A 
ENDBRANCH  85  86
ENDBRANCH   1  85
TORSDOF 37
REMARK  Name = ../refined-set-2016/4h75/4h75_pocket.pdb
REMARK  236 active torsions:
REMARK  status: ('A' for Active; 'I' for Inactive)
REMARK    1  A    between atoms: _1  and  _3
REMARK    2  A    between atoms: _3  and  _4
REMARK    3  A    between atoms: _3  and  _6
REMARK    4  A    between atoms: _6  and  _7
REMARK    5  A    between atoms: _17  and  _19
REMARK    6  A    between atoms: _19  and  _20
REMARK    7  A    between atoms: _19  and  _22
REMARK    8  A    between atoms: _22  and  _23
REMARK    9  A    between atoms: _23  and  _24
REMARK   10  A    between atoms: _24  and  _25
REMARK   11  A    between atoms: _25  and  _26
REMARK   12  A    between atoms: _30  and  _32
REMARK   13  A    between atoms: _32  and  _33
REMARK   14  A    between atoms: _32  and  _35
REMARK   15  A    between atoms: _35  and  _36
REMARK   16  A    between atoms: _41  and  _42
REMARK   17  A    between atoms: _44  and  _46
REMARK   18  A    between atoms: _46  and  _47
REMARK   19  A    between atoms: _46  and  _49
REMARK   20  A    between atoms: _49  and  _50
REMARK   21  A    between atoms: _53  and  _55
REMARK   22  A    between atoms: _55  and  _56
REMARK   23  A    between atoms: _58  and  _60
REMARK   24  A    between atoms: _60  and  _61
REMARK   25  A    between atoms: _60  and  _63
REMARK   26  A    between atoms: _63  and  _64
REMARK   27  A    between atoms: _70  and  _72
REMARK   28  A    between atoms: _72  and  _73
REMARK   29  A    between atoms: _72  and  _75
REMARK   30  A    between atoms: _75  and  _76
REMARK   31  A    between atoms: _79  and  _81
REMARK   32  A    between atoms: _81  and  _82
REMARK   33  A    between atoms: _81  and  _84
REMARK   34  A    between atoms: _86  and  _88
REMARK   35  A    between atoms: _88  and  _89
REMARK   36  A    between atoms: _88  and  _91
REMARK   37  A    between atoms: _94  and  _96
REMARK   38  A    between atoms: _96  and  _97
REMARK   39  A    between atoms: _96  and  _99
REMARK   40  A    between atoms: _99  and  _100
REMARK   41  A    between atoms: _105  and  _106
REMARK   42  A    between atoms: _108  and  _110
REMARK   43  A    between atoms: _110  and  _111
REMARK   44  A    between atoms: _110  and  _113
REMARK   45  A    between atoms: _113  and  _114
REMARK   46  A    between atoms: _119  and  _121
REMARK   47  A    between atoms: _121  and  _122
REMARK   48  A    between atoms: _121  and  _124
REMARK   49  A    between atoms: _124  and  _125
REMARK   50  A    between atoms: _125  and  _126
REMARK   51  A    between atoms: _128  and  _130
REMARK   52  A    between atoms: _130  and  _131
REMARK   53  A    between atoms: _130  and  _133
REMARK   54  A    between atoms: _133  and  _134
REMARK   55  A    between atoms: _140  and  _142
REMARK   56  A    between atoms: _142  and  _143
REMARK   57  A    between atoms: _142  and  _145
REMARK   58  A    between atoms: _145  and  _146
REMARK   59  A    between atoms: _146  and  _147
REMARK   60  A    between atoms: _150  and  _152
REMARK   61  A    between atoms: _152  and  _153
REMARK   62  A    between atoms: _152  and  _155
REMARK   63  A    between atoms: _155  and  _156
REMARK   64  A    between atoms: _159  and  _161
REMARK   65  A    between atoms: _161  and  _162
REMARK   66  A    between atoms: _161  and  _164
REMARK   67  A    between atoms: _164  and  _165
REMARK   68  A    between atoms: _165  and  _166
REMARK   69  A    between atoms: _169  and  _171
REMARK   70  A    between atoms: _171  and  _172
REMARK   71  A    between atoms: _171  and  _174
REMARK   72  A    between atoms: _174  and  _175
REMARK   73  A    between atoms: _178  and  _180
REMARK   74  A    between atoms: _180  and  _181
REMARK   75  A    between atoms: _183  and  _185
REMARK   76  A    between atoms: _185  and  _186
REMARK   77  A    between atoms: _185  and  _188
REMARK   78  A    between atoms: _188  and  _189
REMARK   79  A    between atoms: _191  and  _193
REMARK   80  A    between atoms: _193  and  _194
REMARK   81  A    between atoms: _193  and  _196
REMARK   82  A    between atoms: _196  and  _197
REMARK   83  A    between atoms: _197  and  _198
REMARK   84  A    between atoms: _198  and  _199
REMARK   85  A    between atoms: _199  and  _200
REMARK   86  A    between atoms: _204  and  _206
REMARK   87  A    between atoms: _206  and  _207
REMARK   88  A    between atoms: _206  and  _209
REMARK   89  A    between atoms: _209  and  _210
REMARK   90  A    between atoms: _213  and  _215
REMARK   91  A    between atoms: _215  and  _216
REMARK   92  A    between atoms: _215  and  _218
REMARK   93  A    between atoms: _218  and  _219
REMARK   94  A    between atoms: _219  and  _220
REMARK   95  A    between atoms: _223  and  _225
REMARK   96  A    between atoms: _225  and  _226
REMARK   97  A    between atoms: _225  and  _228
REMARK   98  A    between atoms: _228  and  _229
REMARK   99  A    between atoms: _239  and  _241
REMARK  100  A    between atoms: _241  and  _242
REMARK  101  A    between atoms: _241  and  _244
REMARK  102  A    between atoms: _244  and  _245
REMARK  103  A    between atoms: _245  and  _246
REMARK  104  A    between atoms: _246  and  _247
REMARK  105  A    between atoms: _256  and  _258
REMARK  106  A    between atoms: _258  and  _259
REMARK  107  A    between atoms: _258  and  _261
REMARK  108  A    between atoms: _261  and  _262
REMARK  109  A    between atoms: _265  and  _267
REMARK  110  A    between atoms: _267  and  _268
REMARK  111  A    between atoms: _267  and  _270
REMARK  112  A    between atoms: _270  and  _271
REMARK  113  A    between atoms: _281  and  _283
REMARK  114  A    between atoms: _283  and  _284
REMARK  115  A    between atoms: _283  and  _286
REMARK  116  A    between atoms: _286  and  _287
REMARK  117  A    between atoms: _293  and  _295
REMARK  118  A    between atoms: _295  and  _296
REMARK  119  A    between atoms: _295  and  _298
REMARK  120  A    between atoms: _298  and  _299
REMARK  121  A    between atoms: _302  and  _304
REMARK  122  A    between atoms: _304  and  _305
REMARK  123  A    between atoms: _304  and  _307
REMARK  124  A    between atoms: _307  and  _308
REMARK  125  A    between atoms: _311  and  _313
REMARK  126  A    between atoms: _313  and  _314
REMARK  127  A    between atoms: _313  and  _316
REMARK  128  A    between atoms: _316  and  _317
REMARK  129  A    between atoms: _322  and  _323
REMARK  130  A    between atoms: _325  and  _327
REMARK  131  A    between atoms: _327  and  _328
REMARK  132  A    between atoms: _327  and  _330
REMARK  133  A    between atoms: _330  and  _331
REMARK  134  A    between atoms: _331  and  _332
REMARK  135  A    between atoms: _335  and  _337
REMARK  136  A    between atoms: _337  and  _338
REMARK  137  A    between atoms: _337  and  _340
REMARK  138  A    between atoms: _340  and  _341
REMARK  139  A    between atoms: _341  and  _342
REMARK  140  A    between atoms: _342  and  _343
REMARK  141  A    between atoms: _343  and  _344
REMARK  142  A    between atoms: _348  and  _350
REMARK  143  A    between atoms: _350  and  _351
REMARK  144  A    between atoms: _350  and  _353
REMARK  145  A    between atoms: _353  and  _354
REMARK  146  A    between atoms: _358  and  _359
REMARK  147  A    between atoms: _364  and  _366
REMARK  148  A    between atoms: _366  and  _367
REMARK  149  A    between atoms: _366  and  _369
REMARK  150  A    between atoms: _372  and  _374
REMARK  151  A    between atoms: _374  and  _375
REMARK  152  A    between atoms: _374  and  _377
REMARK  153  A    between atoms: _377  and  _378
REMARK  154  A    between atoms: _381  and  _383
REMARK  155  A    between atoms: _383  and  _384
REMARK  156  A    between atoms: _383  and  _386
REMARK  157  A    between atoms: _386  and  _387
REMARK  158  A    between atoms: _392  and  _393
REMARK  159  A    between atoms: _395  and  _397
REMARK  160  A    between atoms: _397  and  _398
REMARK  161  A    between atoms: _397  and  _400
REMARK  162  A    between atoms: _400  and  _401
REMARK  163  A    between atoms: _401  and  _402
REMARK  164  A    between atoms: _404  and  _406
REMARK  165  A    between atoms: _406  and  _407
REMARK  166  A    between atoms: _406  and  _409
REMARK  167  A    between atoms: _409  and  _410
REMARK  168  A    between atoms: _415  and  _416
REMARK  169  A    between atoms: _418  and  _420
REMARK  170  A    between atoms: _420  and  _421
REMARK  171  A    between atoms: _420  and  _423
REMARK  172  A    between atoms: _423  and  _424
REMARK  173  A    between atoms: _424  and  _425
REMARK  174  A    between atoms: _430  and  _432
REMARK  175  A    between atoms: _432  and  _433
REMARK  176  A    between atoms: _432  and  _435
REMARK  177  A    between atoms: _435  and  _436
REMARK  178  A    between atoms: _439  and  _441
REMARK  179  A    between atoms: _441  and  _442
REMARK  180  A    between atoms: _441  and  _444
REMARK  181  A    between atoms: _444  and  _445
REMARK  182  A    between atoms: _448  and  _450
REMARK  183  A    between atoms: _450  and  _451
REMARK  184  A    between atoms: _450  and  _453
REMARK  185  A    between atoms: _453  and  _454
REMARK  186  A    between atoms: _457  and  _459
REMARK  187  A    between atoms: _459  and  _460
REMARK  188  A    between atoms: _459  and  _462
REMARK  189  A    between atoms: _462  and  _463
REMARK  190  A    between atoms: _466  and  _468
REMARK  191  A    between atoms: _468  and  _469
REMARK  192  A    between atoms: _468  and  _471
REMARK  193  A    between atoms: _471  and  _472
REMARK  194  A    between atoms: _477  and  _478
REMARK  195  A    between atoms: _480  and  _482
REMARK  196  A    between atoms: _482  and  _483
REMARK  197  A    between atoms: _482  and  _485
REMARK  198  A    between atoms: _485  and  _486
REMARK  199  A    between atoms: _486  and  _487
REMARK  200  A    between atoms: _490  and  _492
REMARK  201  A    between atoms: _492  and  _493
REMARK  202  A    between atoms: _495  and  _497
REMARK  203  A    between atoms: _497  and  _498
REMARK  204  A    between atoms: _497  and  _500
REMARK  205  A    between atoms: _500  and  _501
REMARK  206  A    between atoms: _504  and  _506
REMARK  207  A    between atoms: _506  and  _507
REMARK  208  A    between atoms: _506  and  _509
REMARK  209  A    between atoms: _509  and  _510
REMARK  210  A    between atoms: _513  and  _515
REMARK  211  A    between atoms: _515  and  _516
REMARK  212  A    between atoms: _515  and  _518
REMARK  213  A    between atoms: _518  and  _519
REMARK  214  A    between atoms: _519  and  _520
REMARK  215  A    between atoms: _520  and  _521
REMARK  216  A    between atoms: _530  and  _532
REMARK  217  A    between atoms: _532  and  _533
REMARK  218  A    between atoms: _532  and  _535
REMARK  219  A    between atoms: _535  and  _536
REMARK  220  A    between atoms: _539  and  _541
REMARK  221  A    between atoms: _541  and  _542
REMARK  222  A    between atoms: _541  and  _544
REMARK  223  A    between atoms: _544  and  _545
REMARK  224  A    between atoms: _551  and  _553
REMARK  225  A    between atoms: _553  and  _554
REMARK  226  A    between atoms: _553  and  _556
REMARK  227  A    between atoms: _556  and  _557
REMARK  228  A    between atoms: _562  and  _564
REMARK  229  A    between atoms: _564  and  _565
REMARK  230  A    between atoms: _564  and  _567
REMARK  231  A    between atoms: _567  and  _568
REMARK  232  A    between atoms: _571  and  _573
REMARK  233  A    between atoms: _573  and  _574
REMARK  234  A    between atoms: _573  and  _576
REMARK  235  A    between atoms: _576  and  _577
REMARK  236  A    between atoms: _582  and  _583
REMARK                            x       y       z     vdW  Elec       q    Type
REMARK                         _______ _______ _______ _____ _____    ______ ____
ROOT
ATOM      1  C   GLY A   8       6.558   2.013  -9.334  0.00  0.00    +0.243 C 
ATOM      2  N   SER A   9       6.269   0.777  -8.932  0.00  0.00    -0.295 N 
ATOM      3  H   SER A   9       6.931   0.002  -9.137  0.00  0.00    +0.150 HD
ATOM      4  O   GLY A   8       5.810   2.970  -9.135  0.00  0.00    -0.273 OA
ENDROOT
BRANCH   1   5
ATOM      5  CA  GLY A   8       7.870   2.214 -10.069  0.00  0.00    +0.176 C 
BRANCH   5   7
ATOM      6  C   ASP A   7       8.447   0.103 -11.128  0.00  0.00    +0.241 C 
ATOM      7  N   GLY A   8       8.687   1.023 -10.199  0.00  0.00    -0.295 N 
ATOM      8  H   GLY A   8       9.484   0.884  -9.546  0.00  0.00    +0.150 HD
ATOM      9  O   ASP A   7       7.480   0.154 -11.890  0.00  0.00    -0.273 OA
BRANCH   6  10
ATOM     10  CA  ASP A   7       9.445  -1.052 -11.204  0.00  0.00    +0.160 C 
BRANCH  10  12
ATOM     11  C   GLU A   6      11.407  -0.308  -9.943  0.00  0.00    +0.241 C 
ATOM     12  N   ASP A   7      10.335  -1.089 -10.047  0.00  0.00    -0.297 N 
ATOM     13  H   ASP A   7      10.123  -1.752  -9.274  0.00  0.00    +0.150 HD
ATOM     14  O   GLU A   6      11.723   0.522 -10.798  0.00  0.00    -0.273 OA
BRANCH  11  15
ATOM     15  CA  GLU A   6      12.237  -0.476  -8.671  0.00  0.00    +0.149 C 
BRANCH  15  17
ATOM     16  C   THR A   5      10.628   0.617  -7.202  0.00  0.00    +0.243 C 
ATOM     17  N   GLU A   6      11.387  -0.434  -7.488  0.00  0.00    -0.297 N 
ATOM     18  H   GLU A   6      11.375  -1.253  -6.848  0.00  0.00    +0.150 HD
ATOM     19  O   THR A   5      10.644   1.661  -7.857  0.00  0.00    -0.273 OA
BRANCH  16  20
ATOM     20  CA  THR A   5       9.718   0.469  -5.992  0.00  0.00    +0.176 C 
BRANCH  20  23
ATOM     21  C   GLU A   4       9.446   2.757  -5.202  0.00  0.00    +0.241 C 
ATOM     22  O   GLU A   4      10.584   2.795  -4.731  0.00  0.00    -0.273 OA
ATOM     23  N   THR A   5       8.935   1.683  -5.796  0.00  0.00    -0.295 N 
ATOM     24  H   THR A   5       7.950   1.710  -6.130  0.00  0.00    +0.150 HD
BRANCH  21  25
ATOM     25  CA  GLU A   4       8.536   3.970  -5.131  0.00  0.00    +0.149 C 
BRANCH  25  28
ATOM     26  C   PHE A   3       7.638   4.797  -3.026  0.00  0.00    +0.241 C 
ATOM     27  O   PHE A   3       6.495   4.445  -3.311  0.00  0.00    -0.273 OA
ATOM     28  N   GLU A   4       8.669   4.657  -3.853  0.00  0.00    -0.297 N 
ATOM     29  H   GLU A   4       9.594   5.048  -3.581  0.00  0.00    +0.150 HD
BRANCH  26  30
ATOM     30  CA  PHE A   3       7.944   5.424  -1.673  0.00  0.00    +0.153 C 
BRANCH  30  33
ATOM     31  C   MET A   2       6.238   6.720  -0.520  0.00  0.00    +0.241 C 
ATOM     32  O   MET A   2       6.818   7.776  -0.764  0.00  0.00    -0.273 OA
ATOM     33  N   PHE A   3       6.725   5.536  -0.877  0.00  0.00    -0.297 N 
ATOM     34  H   PHE A   3       6.227   4.671  -0.583  0.00  0.00    +0.150 HD
BRANCH  31  35
ATOM     35  CA  MET A   2       4.895   6.717   0.204  0.00  0.00    +0.149 C 
BRANCH  35  38
ATOM     36  C   HIS A   1       5.389   6.727   2.600  0.00  0.00    +0.239 C 
ATOM     37  O   HIS A   1       5.874   5.598   2.580  0.00  0.00    -0.274 OA
ATOM     38  N   MET A   2       4.932   7.343   1.519  0.00  0.00    -0.297 N 
ATOM     39  H   MET A   2       4.584   8.318   1.614  0.00  0.00    +0.150 HD
BRANCH  36  40
ATOM     40  CA  HIS A   1       5.285   7.522   3.898  0.00  0.00    +0.151 C 
BRANCH  40  41
ATOM     41  N   HIS A   1       4.321   6.905   4.808  0.00  0.00    -0.238 NA
ATOM     42  H   HIS A   1       4.570   6.009   5.273  0.00  0.00    +0.142 HD
ENDBRANCH  40  41
BRANCH  40  43
ATOM     43  CB  HIS A   1       6.663   7.657   4.571  0.00  0.00    +0.074 C 
BRANCH  43  44
ATOM     44  CG  HIS A   1       7.630   8.539   3.826  0.00  0.00    +0.082 A 
ATOM     45  ND1 HIS A   1       8.961   8.643   4.171  0.00  0.00    -0.227 NA
ATOM     46  CE1 HIS A   1       9.566   9.481   3.348  0.00  0.00    +0.199 A 
ATOM     47  NE2 HIS A   1       8.675   9.924   2.478  0.00  0.00    -0.221 NA
ATOM     48  CD2 HIS A   1       7.456   9.352   2.756  0.00  0.00    +0.115 A 
ENDBRANCH  43  44
ENDBRANCH  40  43
ENDBRANCH  36  40
ENDBRANCH  35  38
BRANCH  35  49
ATOM     49  CB  MET A   2       3.866   7.441  -0.662  0.00  0.00    +0.041 C 
BRANCH  49  50
ATOM     50  CG  MET A   2       3.823   6.976  -2.094  0.00  0.00    +0.060 C 
BRANCH  50  51
ATOM     51  SD  MET A   2       2.387   5.945  -2.374  0.00  0.00    -0.139 S 
ATOM     52  CE  MET A   2       2.948   4.426  -1.641  0.00  0.00    +0.069 C 
ENDBRANCH  50  51
ENDBRANCH  49  50
ENDBRANCH  35  49
ENDBRANCH  31  35
ENDBRANCH  30  33
BRANCH  30  53
ATOM     53  CB  PHE A   3       9.003   4.585  -0.953  0.00  0.00    +0.055 C 
BRANCH  53  54
ATOM     54  CG  PHE A   3       9.754   5.331   0.122  0.00  0.00    -0.020 A 
ATOM     55  CD2 PHE A   3       9.213   5.474   1.393  0.00  0.00    -0.004 A 
ATOM     56  CE2 PHE A   3       9.904   6.149   2.389  0.00  0.00    -0.000 A 
ATOM     57  CZ  PHE A   3      11.158   6.682   2.122  0.00  0.00    -0.000 A 
ATOM     58  CE1 PHE A   3      11.713   6.537   0.852  0.00  0.00    -0.000 A 
ATOM     59  CD1 PHE A   3      11.012   5.866  -0.135  0.00  0.00    -0.004 A 
ENDBRANCH  53  54
ENDBRANCH  30  53
ENDBRANCH  26  30
ENDBRANCH  25  28
BRANCH  25  60
ATOM     60  CB  GLU A   4       8.851   4.910  -6.289  0.00  0.00    +0.041 C 
BRANCH  60  61
ATOM     61  CG  GLU A   4       7.654   5.681  -6.783  0.00  0.00    +0.116 C 
BRANCH  61  62
ATOM     62  CD  GLU A   4       7.983   6.540  -7.983  0.00  0.00    +0.365 C 
ATOM     63  OE2 GLU A   4       7.227   7.500  -8.244  0.00  0.00    -0.246 OA
ATOM     64  OE1 GLU A   4       8.997   6.256  -8.661  0.00  0.00    -0.246 OA
ENDBRANCH  61  62
ENDBRANCH  60  61
ENDBRANCH  25  60
ENDBRANCH  21  25
ENDBRANCH  20  23
BRANCH  20  65
ATOM     65  CB  THR A   5       8.818  -0.777  -6.187  0.00  0.00    +0.137 C 
ATOM     66  CG2 THR A   5       7.955  -1.019  -4.958  0.00  0.00    +0.034 C 
BRANCH  65  67
ATOM     67  OG1 THR A   5       7.971  -0.594  -7.328  0.00  0.00    -0.382 OA
ATOM     68  HG1 THR A   5       7.400   0.203  -7.189  0.00  0.00    +0.210 HD
ENDBRANCH  65  67
ENDBRANCH  20  65
ENDBRANCH  16  20
ENDBRANCH  15  17
BRANCH  15  69
ATOM     69  CB  GLU A   6      13.014  -1.796  -8.712  0.00  0.00    +0.041 C 
BRANCH  69  70
ATOM     70  CG  GLU A   6      12.194  -3.010  -8.284  0.00  0.00    +0.116 C 
BRANCH  70  71
ATOM     71  CD  GLU A   6      12.944  -4.318  -8.448  0.00  0.00    +0.365 C 
ATOM     72  OE2 GLU A   6      12.381  -5.373  -8.088  0.00  0.00    -0.246 OA
ATOM     73  OE1 GLU A   6      14.093  -4.292  -8.936  0.00  0.00    -0.246 OA
ENDBRANCH  70  71
ENDBRANCH  69  70
ENDBRANCH  15  69
ENDBRANCH  11  15
ENDBRANCH  10  12
BRANCH  10  74
ATOM     74  CB  ASP A   7       8.709  -2.389 -11.360  0.00  0.00    +0.143 C 
BRANCH  74  75
ATOM     75  CG  ASP A   7       8.243  -2.965 -10.030  0.00  0.00    +0.367 C 
ATOM     76  OD2 ASP A   7       8.976  -3.798  -9.452  0.00  0.00    -0.246 OA
ATOM     77  OD1 ASP A   7       7.144  -2.593  -9.568  0.00  0.00    -0.246 OA
ENDBRANCH  74  75
ENDBRANCH  10  74
ENDBRANCH   6  10
ENDBRANCH   5   7
ENDBRANCH   1   5
BRANCH   2  78
ATOM     78  CA  SER A   9       5.031   0.498  -8.206  0.00  0.00    +0.178 C 
BRANCH  78  79
ATOM     79  C   SER A   9       5.059   1.126  -6.814  0.00  0.00    +0.243 C 
ATOM     80  O   SER A   9       6.121   1.331  -6.232  0.00  0.00    -0.273 OA
ATOM     81  N   LYS A  10       3.881   1.435  -6.288  0.00  0.00    -0.297 N 
ATOM     82  H   LYS A  10       3.014   1.201  -6.813  0.00  0.00    +0.150 HD
BRANCH  81  83
ATOM     83  CA  LYS A  10       3.771   2.094  -4.994  0.00  0.00    +0.149 C 
BRANCH  83  84
ATOM     84  C   LYS A  10       4.276   1.199  -3.859  0.00  0.00    +0.241 C 
ATOM     85  N   ASP A  11       4.716   1.823  -2.770  0.00  0.00    -0.297 N 
ATOM     86  H   ASP A  11       4.615   2.856  -2.710  0.00  0.00    +0.150 HD
ATOM     87  O   LYS A  10       4.272  -0.026  -3.972  0.00  0.00    -0.273 OA
BRANCH  85  88
ATOM     88  CA  ASP A  11       5.335   1.111  -1.656  0.00  0.00    +0.160 C 
BRANCH  88  89
ATOM     89  C   ASP A  11       5.243   1.979  -0.406  0.00  0.00    +0.241 C 
ATOM     90  N   GLU A  12       4.200   1.780   0.398  0.00  0.00    -0.297 N 
ATOM     91  H   GLU A  12       3.543   0.999   0.199  0.00  0.00    +0.150 HD
ATOM     92  O   ASP A  11       6.103   2.827  -0.179  0.00  0.00    -0.273 OA
BRANCH  90  93
ATOM     93  CA  GLU A  12       3.963   2.641   1.556  0.00  0.00    +0.149 C 
BRANCH  93  94
ATOM     94  C   GLU A  12       4.562   2.074   2.845  0.00  0.00    +0.241 C 
ATOM     95  N   TRP A  13       5.202   2.945   3.620  0.00  0.00    -0.297 N 
ATOM     96  H   TRP A  13       5.211   3.947   3.340  0.00  0.00    +0.150 HD
ATOM     97  O   GLU A  12       4.442   0.884   3.128  0.00  0.00    -0.273 OA
BRANCH  95  98
ATOM     98  CA  TRP A  13       5.891   2.557   4.845  0.00  0.00    +0.153 C 
BRANCH  98  99
ATOM     99  C   TRP A  13       5.338   3.347   6.015  0.00  0.00    +0.241 C 
ATOM    100  N   ARG A  14       4.879   2.647   7.043  0.00  0.00    -0.298 N 
ATOM    101  H   ARG A  14       4.796   1.613   6.967  0.00  0.00    +0.150 HD
ATOM    102  O   TRP A  13       5.339   4.576   5.995  0.00  0.00    -0.273 OA
BRANCH 100 103
ATOM    103  CA  ARG A  14       4.491   3.313   8.275  0.00  0.00    +0.137 C 
BRANCH 103 104
ATOM    104  C   ARG A  14       5.727   3.767   9.055  0.00  0.00    +0.227 C 
ATOM    105  O   ARG A  14       6.704   3.020   9.204  0.00  0.00    -0.286 OA
ENDBRANCH 103 104
BRANCH 103 106
ATOM    106  CB  ARG A  14       3.631   2.395   9.134  0.00  0.00    +0.031 C 
BRANCH 106 107
ATOM    107  CG  ARG A  14       3.018   3.075  10.340  0.00  0.00    +0.045 C 
BRANCH 107 108
ATOM    108  CD  ARG A  14       1.712   2.395  10.731  0.00  0.00    +0.174 C 
BRANCH 108 109
ATOM    109  NE  ARG A  14       0.826   2.240   9.581  0.00  0.00    -0.265 N 
ATOM    110  CZ  ARG A  14      -0.396   1.722   9.643  0.00  0.00    +0.342 C 
ATOM    111  NH2 ARG A  14      -0.886   1.309  10.806  0.00  0.00    -0.292 N 
ATOM    112 HH21 ARG A  14      -0.313   1.391  11.670  0.00  0.00    +0.255 HD
ATOM    113 HH22 ARG A  14      -1.843   0.904  10.853  0.00  0.00    +0.255 HD
ATOM    114  NH1 ARG A  14      -1.129   1.618   8.541  0.00  0.00    -0.292 N 
ATOM    115 HH11 ARG A  14      -2.086   1.213   8.589  0.00  0.00    +0.255 HD
ATOM    116 HH12 ARG A  14      -0.747   1.942   7.630  0.00  0.00    +0.255 HD
ATOM    117  HE  ARG A  14       1.174   2.555   8.653  0.00  0.00    +0.259 HD
ENDBRANCH 108 109
ENDBRANCH 107 108
ENDBRANCH 106 107
ENDBRANCH 103 106
ENDBRANCH 100 103
ENDBRANCH  98  99
BRANCH  98 118
ATOM    118  CB  TRP A  13       7.396   2.850   4.734  0.00  0.00    +0.057 C 
BRANCH 118 119
ATOM    119  CG  TRP A  13       8.143   1.936   3.809  0.00  0.00    -0.002 A 
ATOM    120  CD2 TRP A  13       9.027   0.873   4.189  0.00  0.00    +0.013 A 
ATOM    121  CE3 TRP A  13       9.449   0.353   5.420  0.00  0.00    +0.001 A 
ATOM    122  CZ3 TRP A  13      10.334  -0.712   5.425  0.00  0.00    +0.000 A 
ATOM    123  CH2 TRP A  13      10.801  -1.270   4.222  0.00  0.00    +0.001 A 
ATOM    124  CZ2 TRP A  13      10.401  -0.785   3.002  0.00  0.00    +0.017 A 
ATOM    125  CE2 TRP A  13       9.512   0.290   2.998  0.00  0.00    +0.056 A 
ATOM    126  NE1 TRP A  13       8.955   0.973   1.948  0.00  0.00    -0.352 N 
ATOM    127  HE1 TRP A  13       9.125   0.777   0.941  0.00  0.00    +0.166 HD
ATOM    128  CD1 TRP A  13       8.135   1.959   2.442  0.00  0.00    +0.068 A 
ENDBRANCH 118 119
ENDBRANCH  98 118
ENDBRANCH  95  98
ENDBRANCH  93  94
BRANCH  93 129
ATOM    129  CB  GLU A  12       2.465   2.912   1.736  0.00  0.00    +0.041 C 
BRANCH 129 130
ATOM    130  CG  GLU A  12       2.145   4.200   2.491  0.00  0.00    +0.116 C 
BRANCH 130 131
ATOM    131  CD  GLU A  12       0.656   4.528   2.485  0.00  0.00    +0.365 C 
ATOM    132  OE2 GLU A  12      -0.140   3.669   2.907  0.00  0.00    -0.246 OA
ATOM    133  OE1 GLU A  12       0.281   5.642   2.063  0.00  0.00    -0.246 OA
ENDBRANCH 130 131
ENDBRANCH 129 130
ENDBRANCH  93 129
ENDBRANCH  90  93
ENDBRANCH  88  89
BRANCH  88 134
ATOM    134  CB  ASP A  11       6.804   0.815  -1.991  0.00  0.00    +0.143 C 
BRANCH 134 135
ATOM    135  CG  ASP A  11       7.541   0.101  -0.866  0.00  0.00    +0.367 C 
ATOM    136  OD2 ASP A  11       6.921  -0.762  -0.200  0.00  0.00    -0.246 OA
ATOM    137  OD1 ASP A  11       8.746   0.404  -0.657  0.00  0.00    -0.246 OA
ENDBRANCH 134 135
ENDBRANCH  88 134
ENDBRANCH  85  88
ENDBRANCH  83  84
BRANCH  83 138
ATOM    138  CB  LYS A  10       2.327   2.537  -4.749  0.00  0.00    +0.029 C 
BRANCH 138 139
ATOM    139  CG  LYS A  10       2.021   3.966  -5.208  0.00  0.00    +0.000 C 
BRANCH 139 140
ATOM    140  CD  LYS A  10       2.492   4.250  -6.631  0.00  0.00    -0.024 C 
BRANCH 140 141
ATOM    141  CE  LYS A  10       2.608   5.748  -6.894  0.00  0.00    -0.086 C 
BRANCH 141 142
ATOM    142  NZ  LYS A  10       3.644   6.395  -6.032  0.00  0.00    +0.380 N 
ATOM    143  HZ1 LYS A  10       3.394   6.261  -5.031  0.00  0.00    -0.089 HD
ATOM    144  HZ2 LYS A  10       4.570   5.961  -6.220  0.00  0.00    -0.089 HD
ATOM    145  HZ3 LYS A  10       3.686   7.412  -6.247  0.00  0.00    -0.089 HD
ENDBRANCH 141 142
ENDBRANCH 140 141
ENDBRANCH 139 140
ENDBRANCH 138 139
ENDBRANCH  83 138
ENDBRANCH  81  83
ENDBRANCH  78  79
BRANCH  78 146
ATOM    146  CB  SER A   9       4.771  -1.008  -8.109  0.00  0.00    +0.166 C 
BRANCH 146 147
ATOM    147  OG  SER A   9       3.457  -1.268  -7.639  0.00  0.00    -0.380 OA
ATOM    148  H   SER A   9       3.314  -2.246  -7.585  0.00  0.00    +0.211 HD
ENDBRANCH 146 147
ENDBRANCH  78 146
ENDBRANCH   2  78
TORSDOF 63
REMARK  Name = ../refined-set-2016/4h75/4h75_pocket.pdb
REMARK  236 active torsions:
REMARK  status: ('A' for Active; 'I' for Inactive)
REMARK    1  A    between atoms: _1  and  _3
REMARK    2  A    between atoms: _3  and  _4
REMARK    3  A    between atoms: _3  and  _6
REMARK    4  A    between atoms: _6  and  _7
REMARK    5  A    between atoms: _17  and  _19
REMARK    6  A    between atoms: _19  and  _20
REMARK    7  A    between atoms: _19  and  _22
REMARK    8  A    between atoms: _22  and  _23
REMARK    9  A    between atoms: _23  and  _24
REMARK   10  A    between atoms: _24  and  _25
REMARK   11  A    between atoms: _25  and  _26
REMARK   12  A    between atoms: _30  and  _32
REMARK   13  A    between atoms: _32  and  _33
REMARK   14  A    between atoms: _32  and  _35
REMARK   15  A    between atoms: _35  and  _36
REMARK   16  A    between atoms: _41  and  _42
REMARK   17  A    between atoms: _44  and  _46
REMARK   18  A    between atoms: _46  and  _47
REMARK   19  A    between atoms: _46  and  _49
REMARK   20  A    between atoms: _49  and  _50
REMARK   21  A    between atoms: _53  and  _55
REMARK   22  A    between atoms: _55  and  _56
REMARK   23  A    between atoms: _58  and  _60
REMARK   24  A    between atoms: _60  and  _61
REMARK   25  A    between atoms: _60  and  _63
REMARK   26  A    between atoms: _63  and  _64
REMARK   27  A    between atoms: _70  and  _72
REMARK   28  A    between atoms: _72  and  _73
REMARK   29  A    between atoms: _72  and  _75
REMARK   30  A    between atoms: _75  and  _76
REMARK   31  A    between atoms: _79  and  _81
REMARK   32  A    between atoms: _81  and  _82
REMARK   33  A    between atoms: _81  and  _84
REMARK   34  A    between atoms: _86  and  _88
REMARK   35  A    between atoms: _88  and  _89
REMARK   36  A    between atoms: _88  and  _91
REMARK   37  A    between atoms: _94  and  _96
REMARK   38  A    between atoms: _96  and  _97
REMARK   39  A    between atoms: _96  and  _99
REMARK   40  A    between atoms: _99  and  _100
REMARK   41  A    between atoms: _105  and  _106
REMARK   42  A    between atoms: _108  and  _110
REMARK   43  A    between atoms: _110  and  _111
REMARK   44  A    between atoms: _110  and  _113
REMARK   45  A    between atoms: _113  and  _114
REMARK   46  A    between atoms: _119  and  _121
REMARK   47  A    between atoms: _121  and  _122
REMARK   48  A    between atoms: _121  and  _124
REMARK   49  A    between atoms: _124  and  _125
REMARK   50  A    between atoms: _125  and  _126
REMARK   51  A    between atoms: _128  and  _130
REMARK   52  A    between atoms: _130  and  _131
REMARK   53  A    between atoms: _130  and  _133
REMARK   54  A    between atoms: _133  and  _134
REMARK   55  A    between atoms: _140  and  _142
REMARK   56  A    between atoms: _142  and  _143
REMARK   57  A    between atoms: _142  and  _145
REMARK   58  A    between atoms: _145  and  _146
REMARK   59  A    between atoms: _146  and  _147
REMARK   60  A    between atoms: _150  and  _152
REMARK   61  A    between atoms: _152  and  _153
REMARK   62  A    between atoms: _152  and  _155
REMARK   63  A    between atoms: _155  and  _156
REMARK   64  A    between atoms: _159  and  _161
REMARK   65  A    between atoms: _161  and  _162
REMARK   66  A    between atoms: _161  and  _164
REMARK   67  A    between atoms: _164  and  _165
REMARK   68  A    between atoms: _165  and  _166
REMARK   69  A    between atoms: _169  and  _171
REMARK   70  A    between atoms: _171  and  _172
REMARK   71  A    between atoms: _171  and  _174
REMARK   72  A    between atoms: _174  and  _175
REMARK   73  A    between atoms: _178  and  _180
REMARK   74  A    between atoms: _180  and  _181
REMARK   75  A    between atoms: _183  and  _185
REMARK   76  A    between atoms: _185  and  _186
REMARK   77  A    between atoms: _185  and  _188
REMARK   78  A    between atoms: _188  and  _189
REMARK   79  A    between atoms: _191  and  _193
REMARK   80  A    between atoms: _193  and  _194
REMARK   81  A    between atoms: _193  and  _196
REMARK   82  A    between atoms: _196  and  _197
REMARK   83  A    between atoms: _197  and  _198
REMARK   84  A    between atoms: _198  and  _199
REMARK   85  A    between atoms: _199  and  _200
REMARK   86  A    between atoms: _204  and  _206
REMARK   87  A    between atoms: _206  and  _207
REMARK   88  A    between atoms: _206  and  _209
REMARK   89  A    between atoms: _209  and  _210
REMARK   90  A    between atoms: _213  and  _215
REMARK   91  A    between atoms: _215  and  _216
REMARK   92  A    between atoms: _215  and  _218
REMARK   93  A    between atoms: _218  and  _219
REMARK   94  A    between atoms: _219  and  _220
REMARK   95  A    between atoms: _223  and  _225
REMARK   96  A    between atoms: _225  and  _226
REMARK   97  A    between atoms: _225  and  _228
REMARK   98  A    between atoms: _228  and  _229
REMARK   99  A    between atoms: _239  and  _241
REMARK  100  A    between atoms: _241  and  _242
REMARK  101  A    between atoms: _241  and  _244
REMARK  102  A    between atoms: _244  and  _245
REMARK  103  A    between atoms: _245  and  _246
REMARK  104  A    between atoms: _246  and  _247
REMARK  105  A    between atoms: _256  and  _258
REMARK  106  A    between atoms: _258  and  _259
REMARK  107  A    between atoms: _258  and  _261
REMARK  108  A    between atoms: _261  and  _262
REMARK  109  A    between atoms: _265  and  _267
REMARK  110  A    between atoms: _267  and  _268
REMARK  111  A    between atoms: _267  and  _270
REMARK  112  A    between atoms: _270  and  _271
REMARK  113  A    between atoms: _281  and  _283
REMARK  114  A    between atoms: _283  and  _284
REMARK  115  A    between atoms: _283  and  _286
REMARK  116  A    between atoms: _286  and  _287
REMARK  117  A    between atoms: _293  and  _295
REMARK  118  A    between atoms: _295  and  _296
REMARK  119  A    between atoms: _295  and  _298
REMARK  120  A    between atoms: _298  and  _299
REMARK  121  A    between atoms: _302  and  _304
REMARK  122  A    between atoms: _304  and  _305
REMARK  123  A    between atoms: _304  and  _307
REMARK  124  A    between atoms: _307  and  _308
REMARK  125  A    between atoms: _311  and  _313
REMARK  126  A    between atoms: _313  and  _314
REMARK  127  A    between atoms: _313  and  _316
REMARK  128  A    between atoms: _316  and  _317
REMARK  129  A    between atoms: _322  and  _323
REMARK  130  A    between atoms: _325  and  _327
REMARK  131  A    between atoms: _327  and  _328
REMARK  132  A    between atoms: _327  and  _330
REMARK  133  A    between atoms: _330  and  _331
REMARK  134  A    between atoms: _331  and  _332
REMARK  135  A    between atoms: _335  and  _337
REMARK  136  A    between atoms: _337  and  _338
REMARK  137  A    between atoms: _337  and  _340
REMARK  138  A    between atoms: _340  and  _341
REMARK  139  A    between atoms: _341  and  _342
REMARK  140  A    between atoms: _342  and  _343
REMARK  141  A    between atoms: _343  and  _344
REMARK  142  A    between atoms: _348  and  _350
REMARK  143  A    between atoms: _350  and  _351
REMARK  144  A    between atoms: _350  and  _353
REMARK  145  A    between atoms: _353  and  _354
REMARK  146  A    between atoms: _358  and  _359
REMARK  147  A    between atoms: _364  and  _366
REMARK  148  A    between atoms: _366  and  _367
REMARK  149  A    between atoms: _366  and  _369
REMARK  150  A    between atoms: _372  and  _374
REMARK  151  A    between atoms: _374  and  _375
REMARK  152  A    between atoms: _374  and  _377
REMARK  153  A    between atoms: _377  and  _378
REMARK  154  A    between atoms: _381  and  _383
REMARK  155  A    between atoms: _383  and  _384
REMARK  156  A    between atoms: _383  and  _386
REMARK  157  A    between atoms: _386  and  _387
REMARK  158  A    between atoms: _392  and  _393
REMARK  159  A    between atoms: _395  and  _397
REMARK  160  A    between atoms: _397  and  _398
REMARK  161  A    between atoms: _397  and  _400
REMARK  162  A    between atoms: _400  and  _401
REMARK  163  A    between atoms: _401  and  _402
REMARK  164  A    between atoms: _404  and  _406
REMARK  165  A    between atoms: _406  and  _407
REMARK  166  A    between atoms: _406  and  _409
REMARK  167  A    between atoms: _409  and  _410
REMARK  168  A    between atoms: _415  and  _416
REMARK  169  A    between atoms: _418  and  _420
REMARK  170  A    between atoms: _420  and  _421
REMARK  171  A    between atoms: _420  and  _423
REMARK  172  A    between atoms: _423  and  _424
REMARK  173  A    between atoms: _424  and  _425
REMARK  174  A    between atoms: _430  and  _432
REMARK  175  A    between atoms: _432  and  _433
REMARK  176  A    between atoms: _432  and  _435
REMARK  177  A    between atoms: _435  and  _436
REMARK  178  A    between atoms: _439  and  _441
REMARK  179  A    between atoms: _441  and  _442
REMARK  180  A    between atoms: _441  and  _444
REMARK  181  A    between atoms: _444  and  _445
REMARK  182  A    between atoms: _448  and  _450
REMARK  183  A    between atoms: _450  and  _451
REMARK  184  A    between atoms: _450  and  _453
REMARK  185  A    between atoms: _453  and  _454
REMARK  186  A    between atoms: _457  and  _459
REMARK  187  A    between atoms: _459  and  _460
REMARK  188  A    between atoms: _459  and  _462
REMARK  189  A    between atoms: _462  and  _463
REMARK  190  A    between atoms: _466  and  _468
REMARK  191  A    between atoms: _468  and  _469
REMARK  192  A    between atoms: _468  and  _471
REMARK  193  A    between atoms: _471  and  _472
REMARK  194  A    between atoms: _477  and  _478
REMARK  195  A    between atoms: _480  and  _482
REMARK  196  A    between atoms: _482  and  _483
REMARK  197  A    between atoms: _482  and  _485
REMARK  198  A    between atoms: _485  and  _486
REMARK  199  A    between atoms: _486  and  _487
REMARK  200  A    between atoms: _490  and  _492
REMARK  201  A    between atoms: _492  and  _493
REMARK  202  A    between atoms: _495  and  _497
REMARK  203  A    between atoms: _497  and  _498
REMARK  204  A    between atoms: _497  and  _500
REMARK  205  A    between atoms: _500  and  _501
REMARK  206  A    between atoms: _504  and  _506
REMARK  207  A    between atoms: _506  and  _507
REMARK  208  A    between atoms: _506  and  _509
REMARK  209  A    between atoms: _509  and  _510
REMARK  210  A    between atoms: _513  and  _515
REMARK  211  A    between atoms: _515  and  _516
REMARK  212  A    between atoms: _515  and  _518
REMARK  213  A    between atoms: _518  and  _519
REMARK  214  A    between atoms: _519  and  _520
REMARK  215  A    between atoms: _520  and  _521
REMARK  216  A    between atoms: _530  and  _532
REMARK  217  A    between atoms: _532  and  _533
REMARK  218  A    between atoms: _532  and  _535
REMARK  219  A    between atoms: _535  and  _536
REMARK  220  A    between atoms: _539  and  _541
REMARK  221  A    between atoms: _541  and  _542
REMARK  222  A    between atoms: _541  and  _544
REMARK  223  A    between atoms: _544  and  _545
REMARK  224  A    between atoms: _551  and  _553
REMARK  225  A    between atoms: _553  and  _554
REMARK  226  A    between atoms: _553  and  _556
REMARK  227  A    between atoms: _556  and  _557
REMARK  228  A    between atoms: _562  and  _564
REMARK  229  A    between atoms: _564  and  _565
REMARK  230  A    between atoms: _564  and  _567
REMARK  231  A    between atoms: _567  and  _568
REMARK  232  A    between atoms: _571  and  _573
REMARK  233  A    between atoms: _573  and  _574
REMARK  234  A    between atoms: _573  and  _576
REMARK  235  A    between atoms: _576  and  _577
REMARK  236  A    between atoms: _582  and  _583
REMARK                            x       y       z     vdW  Elec       q    Type
REMARK                         _______ _______ _______ _____ _____    ______ ____
ROOT
ATOM      1  CA  TRP A   2      15.538  17.911   6.623  0.00  0.00    +0.153 C 
ENDROOT
BRANCH   1   3
ATOM      2  C   THR A   1      14.763  20.123   5.968  0.00  0.00    +0.241 C 
ATOM      3  N   TRP A   2      15.644  19.355   6.600  0.00  0.00    -0.297 N 
ATOM      4  H   TRP A   2      16.438  19.807   7.096  0.00  0.00    +0.150 HD
ATOM      5  O   THR A   1      13.856  19.665   5.276  0.00  0.00    -0.274 OA
BRANCH   2   6
ATOM      6  CA  THR A   1      14.946  21.639   6.147  0.00  0.00    +0.172 C 
BRANCH   6   7
ATOM      7  N   THR A   1      16.092  21.925   7.011  0.00  0.00    -0.236 NA
ATOM      8  H   THR A   1      17.042  21.995   6.594  0.00  0.00    +0.142 HD
ENDBRANCH   6   7
BRANCH   6   9
ATOM      9  CB  THR A   1      15.096  22.280   4.766  0.00  0.00    +0.135 C 
ATOM     10  CG2 THR A   1      15.374  23.771   4.900  0.00  0.00    +0.034 C 
BRANCH   9  11
ATOM     11  OG1 THR A   1      16.169  21.644   4.061  0.00  0.00    -0.383 OA
ATOM     12  HG1 THR A   1      16.267  22.058   3.167  0.00  0.00    +0.210 HD
ENDBRANCH   9  11
ENDBRANCH   6   9
ENDBRANCH   2   6
ENDBRANCH   1   3
BRANCH   1  13
ATOM     13  C   TRP A   2      14.962  17.455   7.959  0.00  0.00    +0.241 C 
ATOM     14  O   TRP A   2      15.018  18.182   8.952  0.00  0.00    -0.273 OA
ATOM     15  N   PHE A   3      14.414  16.246   7.971  0.00  0.00    -0.298 N 
ATOM     16  H   PHE A   3      14.432  15.680   7.099  0.00  0.00    +0.150 HD
BRANCH  15  17
ATOM     17  CA  PHE A   3      13.787  15.680   9.163  0.00  0.00    +0.141 C 
BRANCH  17  18
ATOM     18  C   PHE A   3      14.332  14.298   9.485  0.00  0.00    +0.227 C 
ATOM     19  O   PHE A   3      14.558  13.494   8.590  0.00  0.00    -0.286 OA
ENDBRANCH  17  18
BRANCH  17  20
ATOM     20  CB  PHE A   3      12.281  15.513   8.947  0.00  0.00    +0.054 C 
BRANCH  20  21
ATOM     21  CG  PHE A   3      11.549  16.803   8.758  0.00  0.00    -0.020 A 
ATOM     22  CD2 PHE A   3      10.800  17.346   9.796  0.00  0.00    -0.004 A 
ATOM     23  CE2 PHE A   3      10.117  18.542   9.623  0.00  0.00    -0.000 A 
ATOM     24  CZ  PHE A   3      10.175  19.200   8.403  0.00  0.00    -0.000 A 
ATOM     25  CE1 PHE A   3      10.918  18.667   7.363  0.00  0.00    -0.000 A 
ATOM     26  CD1 PHE A   3      11.597  17.471   7.539  0.00  0.00    -0.004 A 
ENDBRANCH  20  21
ENDBRANCH  17  20
ENDBRANCH  15  17
ENDBRANCH   1  13
BRANCH   1  27
ATOM     27  CB  TRP A   2      16.923  17.278   6.400  0.00  0.00    +0.057 C 
BRANCH  27  28
ATOM     28  CG  TRP A   2      17.533  17.619   5.061  0.00  0.00    -0.002 A 
ATOM     29  CD1 TRP A   2      17.846  18.864   4.591  0.00  0.00    +0.068 A 
ATOM     30  NE1 TRP A   2      18.400  18.768   3.329  0.00  0.00    -0.352 N 
ATOM     31  CE2 TRP A   2      18.455  17.446   2.971  0.00  0.00    +0.056 A 
ATOM     32  CZ2 TRP A   2      18.935  16.853   1.804  0.00  0.00    +0.017 A 
ATOM     33  CH2 TRP A   2      18.872  15.490   1.721  0.00  0.00    +0.001 A 
ATOM     34  CZ3 TRP A   2      18.345  14.712   2.771  0.00  0.00    +0.000 A 
ATOM     35  CE3 TRP A   2      17.875  15.297   3.926  0.00  0.00    +0.001 A 
ATOM     36  HE1 TRP A   2      18.722  19.567   2.747  0.00  0.00    +0.166 HD
ATOM     37  CD2 TRP A   2      17.918  16.693   4.036  0.00  0.00    +0.013 A 
ENDBRANCH  27  28
ENDBRANCH   1  27
TORSDOF 12
REMARK  Name = ../refined-set-2016/4h75/4h75_pocket.pdb
REMARK  236 active torsions:
REMARK  status: ('A' for Active; 'I' for Inactive)
REMARK    1  A    between atoms: _1  and  _3
REMARK    2  A    between atoms: _3  and  _4
REMARK    3  A    between atoms: _3  and  _6
REMARK    4  A    between atoms: _6  and  _7
REMARK    5  A    between atoms: _17  and  _19
REMARK    6  A    between atoms: _19  and  _20
REMARK    7  A    between atoms: _19  and  _22
REMARK    8  A    between atoms: _22  and  _23
REMARK    9  A    between atoms: _23  and  _24
REMARK   10  A    between atoms: _24  and  _25
REMARK   11  A    between atoms: _25  and  _26
REMARK   12  A    between atoms: _30  and  _32
REMARK   13  A    between atoms: _32  and  _33
REMARK   14  A    between atoms: _32  and  _35
REMARK   15  A    between atoms: _35  and  _36
REMARK   16  A    between atoms: _41  and  _42
REMARK   17  A    between atoms: _44  and  _46
REMARK   18  A    between atoms: _46  and  _47
REMARK   19  A    between atoms: _46  and  _49
REMARK   20  A    between atoms: _49  and  _50
REMARK   21  A    between atoms: _53  and  _55
REMARK   22  A    between atoms: _55  and  _56
REMARK   23  A    between atoms: _58  and  _60
REMARK   24  A    between atoms: _60  and  _61
REMARK   25  A    between atoms: _60  and  _63
REMARK   26  A    between atoms: _63  and  _64
REMARK   27  A    between atoms: _70  and  _72
REMARK   28  A    between atoms: _72  and  _73
REMARK   29  A    between atoms: _72  and  _75
REMARK   30  A    between atoms: _75  and  _76
REMARK   31  A    between atoms: _79  and  _81
REMARK   32  A    between atoms: _81  and  _82
REMARK   33  A    between atoms: _81  and  _84
REMARK   34  A    between atoms: _86  and  _88
REMARK   35  A    between atoms: _88  and  _89
REMARK   36  A    between atoms: _88  and  _91
REMARK   37  A    between atoms: _94  and  _96
REMARK   38  A    between atoms: _96  and  _97
REMARK   39  A    between atoms: _96  and  _99
REMARK   40  A    between atoms: _99  and  _100
REMARK   41  A    between atoms: _105  and  _106
REMARK   42  A    between atoms: _108  and  _110
REMARK   43  A    between atoms: _110  and  _111
REMARK   44  A    between atoms: _110  and  _113
REMARK   45  A    between atoms: _113  and  _114
REMARK   46  A    between atoms: _119  and  _121
REMARK   47  A    between atoms: _121  and  _122
REMARK   48  A    between atoms: _121  and  _124
REMARK   49  A    between atoms: _124  and  _125
REMARK   50  A    between atoms: _125  and  _126
REMARK   51  A    between atoms: _128  and  _130
REMARK   52  A    between atoms: _130  and  _131
REMARK   53  A    between atoms: _130  and  _133
REMARK   54  A    between atoms: _133  and  _134
REMARK   55  A    between atoms: _140  and  _142
REMARK   56  A    between atoms: _142  and  _143
REMARK   57  A    between atoms: _142  and  _145
REMARK   58  A    between atoms: _145  and  _146
REMARK   59  A    between atoms: _146  and  _147
REMARK   60  A    between atoms: _150  and  _152
REMARK   61  A    between atoms: _152  and  _153
REMARK   62  A    between atoms: _152  and  _155
REMARK   63  A    between atoms: _155  and  _156
REMARK   64  A    between atoms: _159  and  _161
REMARK   65  A    between atoms: _161  and  _162
REMARK   66  A    between atoms: _161  and  _164
REMARK   67  A    between atoms: _164  and  _165
REMARK   68  A    between atoms: _165  and  _166
REMARK   69  A    between atoms: _169  and  _171
REMARK   70  A    between atoms: _171  and  _172
REMARK   71  A    between atoms: _171  and  _174
REMARK   72  A    between atoms: _174  and  _175
REMARK   73  A    between atoms: _178  and  _180
REMARK   74  A    between atoms: _180  and  _181
REMARK   75  A    between atoms: _183  and  _185
REMARK   76  A    between atoms: _185  and  _186
REMARK   77  A    between atoms: _185  and  _188
REMARK   78  A    between atoms: _188  and  _189
REMARK   79  A    between atoms: _191  and  _193
REMARK   80  A    between atoms: _193  and  _194
REMARK   81  A    between atoms: _193  and  _196
REMARK   82  A    between atoms: _196  and  _197
REMARK   83  A    between atoms: _197  and  _198
REMARK   84  A    between atoms: _198  and  _199
REMARK   85  A    between atoms: _199  and  _200
REMARK   86  A    between atoms: _204  and  _206
REMARK   87  A    between atoms: _206  and  _207
REMARK   88  A    between atoms: _206  and  _209
REMARK   89  A    between atoms: _209  and  _210
REMARK   90  A    between atoms: _213  and  _215
REMARK   91  A    between atoms: _215  and  _216
REMARK   92  A    between atoms: _215  and  _218
REMARK   93  A    between atoms: _218  and  _219
REMARK   94  A    between atoms: _219  and  _220
REMARK   95  A    between atoms: _223  and  _225
REMARK   96  A    between atoms: _225  and  _226
REMARK   97  A    between atoms: _225  and  _228
REMARK   98  A    between atoms: _228  and  _229
REMARK   99  A    between atoms: _239  and  _241
REMARK  100  A    between atoms: _241  and  _242
REMARK  101  A    between atoms: _241  and  _244
REMARK  102  A    between atoms: _244  and  _245
REMARK  103  A    between atoms: _245  and  _246
REMARK  104  A    between atoms: _246  and  _247
REMARK  105  A    between atoms: _256  and  _258
REMARK  106  A    between atoms: _258  and  _259
REMARK  107  A    between atoms: _258  and  _261
REMARK  108  A    between atoms: _261  and  _262
REMARK  109  A    between atoms: _265  and  _267
REMARK  110  A    between atoms: _267  and  _268
REMARK  111  A    between atoms: _267  and  _270
REMARK  112  A    between atoms: _270  and  _271
REMARK  113  A    between atoms: _281  and  _283
REMARK  114  A    between atoms: _283  and  _284
REMARK  115  A    between atoms: _283  and  _286
REMARK  116  A    between atoms: _286  and  _287
REMARK  117  A    between atoms: _293  and  _295
REMARK  118  A    between atoms: _295  and  _296
REMARK  119  A    between atoms: _295  and  _298
REMARK  120  A    between atoms: _298  and  _299
REMARK  121  A    between atoms: _302  and  _304
REMARK  122  A    between atoms: _304  and  _305
REMARK  123  A    between atoms: _304  and  _307
REMARK  124  A    between atoms: _307  and  _308
REMARK  125  A    between atoms: _311  and  _313
REMARK  126  A    between atoms: _313  and  _314
REMARK  127  A    between atoms: _313  and  _316
REMARK  128  A    between atoms: _316  and  _317
REMARK  129  A    between atoms: _322  and  _323
REMARK  130  A    between atoms: _325  and  _327
REMARK  131  A    between atoms: _327  and  _328
REMARK  132  A    between atoms: _327  and  _330
REMARK  133  A    between atoms: _330  and  _331
REMARK  134  A    between atoms: _331  and  _332
REMARK  135  A    between atoms: _335  and  _337
REMARK  136  A    between atoms: _337  and  _338
REMARK  137  A    between atoms: _337  and  _340
REMARK  138  A    between atoms: _340  and  _341
REMARK  139  A    between atoms: _341  and  _342
REMARK  140  A    between atoms: _342  and  _343
REMARK  141  A    between atoms: _343  and  _344
REMARK  142  A    between atoms: _348  and  _350
REMARK  143  A    between atoms: _350  and  _351
REMARK  144  A    between atoms: _350  and  _353
REMARK  145  A    between atoms: _353  and  _354
REMARK  146  A    between atoms: _358  and  _359
REMARK  147  A    between atoms: _364  and  _366
REMARK  148  A    between atoms: _366  and  _367
REMARK  149  A    between atoms: _366  and  _369
REMARK  150  A    between atoms: _372  and  _374
REMARK  151  A    between atoms: _374  and  _375
REMARK  152  A    between atoms: _374  and  _377
REMARK  153  A    between atoms: _377  and  _378
REMARK  154  A    between atoms: _381  and  _383
REMARK  155  A    between atoms: _383  and  _384
REMARK  156  A    between atoms: _383  and  _386
REMARK  157  A    between atoms: _386  and  _387
REMARK  158  A    between atoms: _392  and  _393
REMARK  159  A    between atoms: _395  and  _397
REMARK  160  A    between atoms: _397  and  _398
REMARK  161  A    between atoms: _397  and  _400
REMARK  162  A    between atoms: _400  and  _401
REMARK  163  A    between atoms: _401  and  _402
REMARK  164  A    between atoms: _404  and  _406
REMARK  165  A    between atoms: _406  and  _407
REMARK  166  A    between atoms: _406  and  _409
REMARK  167  A    between atoms: _409  and  _410
REMARK  168  A    between atoms: _415  and  _416
REMARK  169  A    between atoms: _418  and  _420
REMARK  170  A    between atoms: _420  and  _421
REMARK  171  A    between atoms: _420  and  _423
REMARK  172  A    between atoms: _423  and  _424
REMARK  173  A    between atoms: _424  and  _425
REMARK  174  A    between atoms: _430  and  _432
REMARK  175  A    between atoms: _432  and  _433
REMARK  176  A    between atoms: _432  and  _435
REMARK  177  A    between atoms: _435  and  _436
REMARK  178  A    between atoms: _439  and  _441
REMARK  179  A    between atoms: _441  and  _442
REMARK  180  A    between atoms: _441  and  _444
REMARK  181  A    between atoms: _444  and  _445
REMARK  182  A    between atoms: _448  and  _450
REMARK  183  A    between atoms: _450  and  _451
REMARK  184  A    between atoms: _450  and  _453
REMARK  185  A    between atoms: _453  and  _454
REMARK  186  A    between atoms: _457  and  _459
REMARK  187  A    between atoms: _459  and  _460
REMARK  188  A    between atoms: _459  and  _462
REMARK  189  A    between atoms: _462  and  _463
REMARK  190  A    between atoms: _466  and  _468
REMARK  191  A    between atoms: _468  and  _469
REMARK  192  A    between atoms: _468  and  _471
REMARK  193  A    between atoms: _471  and  _472
REMARK  194  A    between atoms: _477  and  _478
REMARK  195  A    between atoms: _480  and  _482
REMARK  196  A    between atoms: _482  and  _483
REMARK  197  A    between atoms: _482  and  _485
REMARK  198  A    between atoms: _485  and  _486
REMARK  199  A    between atoms: _486  and  _487
REMARK  200  A    between atoms: _490  and  _492
REMARK  201  A    between atoms: _492  and  _493
REMARK  202  A    between atoms: _495  and  _497
REMARK  203  A    between atoms: _497  and  _498
REMARK  204  A    between atoms: _497  and  _500
REMARK  205  A    between atoms: _500  and  _501
REMARK  206  A    between atoms: _504  and  _506
REMARK  207  A    between atoms: _506  and  _507
REMARK  208  A    between atoms: _506  and  _509
REMARK  209  A    between atoms: _509  and  _510
REMARK  210  A    between atoms: _513  and  _515
REMARK  211  A    between atoms: _515  and  _516
REMARK  212  A    between atoms: _515  and  _518
REMARK  213  A    between atoms: _518  and  _519
REMARK  214  A    between atoms: _519  and  _520
REMARK  215  A    between atoms: _520  and  _521
REMARK  216  A    between atoms: _530  and  _532
REMARK  217  A    between atoms: _532  and  _533
REMARK  218  A    between atoms: _532  and  _535
REMARK  219  A    between atoms: _535  and  _536
REMARK  220  A    between atoms: _539  and  _541
REMARK  221  A    between atoms: _541  and  _542
REMARK  222  A    between atoms: _541  and  _544
REMARK  223  A    between atoms: _544  and  _545
REMARK  224  A    between atoms: _551  and  _553
REMARK  225  A    between atoms: _553  and  _554
REMARK  226  A    between atoms: _553  and  _556
REMARK  227  A    between atoms: _556  and  _557
REMARK  228  A    between atoms: _562  and  _564
REMARK  229  A    between atoms: _564  and  _565
REMARK  230  A    between atoms: _564  and  _567
REMARK  231  A    between atoms: _567  and  _568
REMARK  232  A    between atoms: _571  and  _573
REMARK  233  A    between atoms: _573  and  _574
REMARK  234  A    between atoms: _573  and  _576
REMARK  235  A    between atoms: _576  and  _577
REMARK  236  A    between atoms: _582  and  _583
REMARK                            x       y       z     vdW  Elec       q    Type
REMARK                         _______ _______ _______ _____ _____    ______ ____
ROOT
ATOM      1  CA  TYR A  10      16.571   8.167   8.352  0.00  0.00    +0.153 C 
ENDROOT
BRANCH   1   2
ATOM      2  C   TYR A  10      16.428   9.672   8.328  0.00  0.00    +0.241 C 
ATOM      3  O   TYR A  10      16.068  10.303   9.325  0.00  0.00    -0.273 OA
ATOM      4  N   MET A  11      16.707  10.253   7.176  0.00  0.00    -0.297 N 
ATOM      5  H   MET A  11      16.949   9.675   6.346  0.00  0.00    +0.150 HD
BRANCH   4   6
ATOM      6  CA  MET A  11      16.676  11.698   7.070  0.00  0.00    +0.149 C 
BRANCH   6   7
ATOM      7  C   MET A  11      16.263  12.108   5.673  0.00  0.00    +0.241 C 
ATOM      8  N   TYR A  12      15.163  12.860   5.579  0.00  0.00    -0.297 N 
ATOM      9  H   TYR A  12      14.648  13.101   6.449  0.00  0.00    +0.150 HD
ATOM     10  O   MET A  11      16.927  11.745   4.702  0.00  0.00    -0.273 OA
BRANCH   8  11
ATOM     11  CA  TYR A  12      14.654  13.358   4.301  0.00  0.00    +0.153 C 
BRANCH  11  12
ATOM     12  C   TYR A  12      14.102  14.773   4.410  0.00  0.00    +0.241 C 
ATOM     13  O   TYR A  12      13.735  15.230   5.487  0.00  0.00    -0.273 OA
ATOM     14  N   GLN A  13      14.024  15.460   3.277  0.00  0.00    -0.297 N 
ATOM     15  H   GLN A  13      14.515  15.107   2.431  0.00  0.00    +0.150 HD
BRANCH  14  16
ATOM     16  CA  GLN A  13      13.260  16.703   3.197  0.00  0.00    +0.149 C 
BRANCH  16  17
ATOM     17  C   GLN A  13      11.762  16.401   3.032  0.00  0.00    +0.241 C 
ATOM     18  N   LEU A  14      11.127  16.027   4.145  0.00  0.00    -0.297 N 
ATOM     19  H   LEU A  14      11.642  16.087   5.047  0.00  0.00    +0.150 HD
ATOM     20  O   GLN A  13      11.203  16.515   1.932  0.00  0.00    -0.273 OA
BRANCH  18  21
ATOM     21  CA  LEU A  14       9.743  15.535   4.169  0.00  0.00    +0.149 C 
BRANCH  21  22
ATOM     22  C   LEU A  14       8.668  16.525   3.720  0.00  0.00    +0.241 C 
ATOM     23  N   LEU A  15       8.946  17.822   3.812  0.00  0.00    -0.297 N 
ATOM     24  H   LEU A  15       9.845  18.130   4.235  0.00  0.00    +0.150 HD
ATOM     25  O   LEU A  14       7.583  16.111   3.308  0.00  0.00    -0.273 OA
BRANCH  23  26
ATOM     26  CA  LEU A  15       7.992  18.819   3.320  0.00  0.00    +0.149 C 
BRANCH  26  27
ATOM     27  C   LEU A  15       7.759  18.636   1.831  0.00  0.00    +0.241 C 
ATOM     28  O   LEU A  15       6.681  18.935   1.324  0.00  0.00    -0.273 OA
ATOM     29  N   ASP A  16       8.779  18.155   1.129  0.00  0.00    -0.297 N 
ATOM     30  H   ASP A  16       9.696  18.004   1.596  0.00  0.00    +0.150 HD
BRANCH  29  31
ATOM     31  CA  ASP A  16       8.633  17.837  -0.282  0.00  0.00    +0.160 C 
BRANCH  31  32
ATOM     32  C   ASP A  16       7.672  16.679  -0.470  0.00  0.00    +0.241 C 
ATOM     33  N   ASP A  17       7.881  15.586   0.268  0.00  0.00    -0.297 N 
ATOM     34  H   ASP A  17       8.695  15.543   0.914  0.00  0.00    +0.150 HD
ATOM     35  O   ASP A  16       6.741  16.775  -1.275  0.00  0.00    -0.273 OA
BRANCH  33  36
ATOM     36  CA  ASP A  17       6.964  14.446   0.169  0.00  0.00    +0.160 C 
BRANCH  36  37
ATOM     37  C   ASP A  17       5.534  14.868   0.510  0.00  0.00    +0.241 C 
ATOM     38  N   TYR A  18       5.406  15.716   1.527  0.00  0.00    -0.298 N 
ATOM     39  H   TYR A  18       6.259  16.077   1.999  0.00  0.00    +0.150 HD
ATOM     40  O   ASP A  17       4.572  14.440  -0.141  0.00  0.00    -0.273 OA
BRANCH  38  41
ATOM     41  CA  TYR A  18       4.090  16.152   1.995  0.00  0.00    +0.141 C 
BRANCH  41  42
ATOM     42  C   TYR A  18       3.337  16.926   0.929  0.00  0.00    +0.227 C 
ATOM     43  O   TYR A  18       2.163  16.657   0.666  0.00  0.00    -0.286 OA
ENDBRANCH  41  42
BRANCH  41  44
ATOM     44  CB  TYR A  18       4.201  17.004   3.260  0.00  0.00    +0.054 C 
BRANCH  44  45
ATOM     45  CG  TYR A  18       2.847  17.316   3.857  0.00  0.00    -0.020 A 
ATOM     46  CD2 TYR A  18       2.200  16.395   4.667  0.00  0.00    -0.001 A 
ATOM     47  CE2 TYR A  18       0.956  16.666   5.209  0.00  0.00    +0.036 A 
ATOM     48  CZ  TYR A  18       0.338  17.869   4.938  0.00  0.00    +0.134 A 
ATOM     49  CE1 TYR A  18       0.955  18.801   4.128  0.00  0.00    +0.036 A 
ATOM     50  CD1 TYR A  18       2.205  18.520   3.591  0.00  0.00    -0.001 A 
BRANCH  48  51
ATOM     51  OH  TYR A  18      -0.900  18.136   5.482  0.00  0.00    -0.506 OA
ATOM     52  HH  TYR A  18      -1.191  17.366   6.031  0.00  0.00    +0.292 HD
ENDBRANCH  48  51
ENDBRANCH  44  45
ENDBRANCH  41  44
ENDBRANCH  38  41
ENDBRANCH  36  37
BRANCH  36  53
ATOM     53  CB  ASP A  17       7.398  13.304   1.086  0.00  0.00    +0.143 C 
BRANCH  53  54
ATOM     54  CG  ASP A  17       8.847  12.916   0.880  0.00  0.00    +0.367 C 
ATOM     55  OD2 ASP A  17       9.718  13.762   1.154  0.00  0.00    -0.246 OA
ATOM     56  OD1 ASP A  17       9.114  11.773   0.444  0.00  0.00    -0.246 OA
ENDBRANCH  53  54
ENDBRANCH  36  53
ENDBRANCH  33  36
ENDBRANCH  31  32
BRANCH  31  57
ATOM     57  CB  ASP A  16       9.989  17.526  -0.926  0.00  0.00    +0.143 C 
BRANCH  57  58
ATOM     58  CG  ASP A  16      10.848  18.768  -1.100  0.00  0.00    +0.367 C 
ATOM     59  OD2 ASP A  16      10.308  19.886  -0.968  0.00  0.00    -0.246 OA
ATOM     60  OD1 ASP A  16      12.059  18.629  -1.372  0.00  0.00    -0.246 OA
ENDBRANCH  57  58
ENDBRANCH  31  57
ENDBRANCH  29  31
ENDBRANCH  26  27
BRANCH  26  61
ATOM     61  CB  LEU A  15       8.471  20.244   3.598  0.00  0.00    +0.029 C 
BRANCH  61  62
ATOM     62  CG  LEU A  15       8.540  20.658   5.068  0.00  0.00    +0.002 C 
ATOM     63  CD2 LEU A  15       7.149  20.703   5.678  0.00  0.00    +0.000 C 
ATOM     64  CD1 LEU A  15       9.230  22.004   5.214  0.00  0.00    +0.000 C 
ENDBRANCH  61  62
ENDBRANCH  26  61
ENDBRANCH  23  26
ENDBRANCH  21  22
BRANCH  21  65
ATOM     65  CB  LEU A  14       9.390  15.000   5.566  0.00  0.00    +0.029 C 
BRANCH  65  66
ATOM     66  CG  LEU A  14      10.163  13.743   6.002  0.00  0.00    +0.002 C 
ATOM     67  CD2 LEU A  14       9.803  13.323   7.429  0.00  0.00    +0.000 C 
ATOM     68  CD1 LEU A  14       9.915  12.598   5.029  0.00  0.00    +0.000 C 
ENDBRANCH  65  66
ENDBRANCH  21  65
ENDBRANCH  18  21
ENDBRANCH  16  17
BRANCH  16  69
ATOM     69  CB  GLN A  13      13.789  17.574   2.056  0.00  0.00    +0.039 C 
BRANCH  69  70
ATOM     70  CG  GLN A  13      15.189  18.106   2.333  0.00  0.00    +0.087 C 
BRANCH  70  71
ATOM     71  CD  GLN A  13      15.722  19.011   1.237  0.00  0.00    +0.219 C 
ATOM     72  OE1 GLN A  13      15.871  20.214   1.429  0.00  0.00    -0.275 OA
ATOM     73  NE2 GLN A  13      16.018  18.432   0.088  0.00  0.00    -0.329 N 
ATOM     74 HE21 GLN A  13      15.876  17.409  -0.030  0.00  0.00    +0.145 HD
ATOM     75 HE22 GLN A  13      16.394  18.999  -0.699  0.00  0.00    +0.145 HD
ENDBRANCH  70  71
ENDBRANCH  69  70
ENDBRANCH  16  69
ENDBRANCH  14  16
ENDBRANCH  11  12
BRANCH  11  76
ATOM     76  CB  TYR A  12      13.506  12.482   3.786  0.00  0.00    +0.055 C 
BRANCH  76  77
ATOM     77  CG  TYR A  12      13.827  11.026   3.546  0.00  0.00    -0.020 A 
ATOM     78  CD2 TYR A  12      13.368  10.036   4.417  0.00  0.00    -0.001 A 
ATOM     79  CE2 TYR A  12      13.641   8.689   4.186  0.00  0.00    +0.036 A 
ATOM     80  CZ  TYR A  12      14.374   8.337   3.066  0.00  0.00    +0.134 A 
ATOM     81  CE1 TYR A  12      14.834   9.306   2.189  0.00  0.00    +0.036 A 
ATOM     82  CD1 TYR A  12      14.556  10.634   2.428  0.00  0.00    -0.001 A 
BRANCH  80  83
ATOM     83  OH  TYR A  12      14.655   7.021   2.809  0.00  0.00    -0.506 OA
ATOM     84  HH  TYR A  12      15.636   6.892   2.788  0.00  0.00    +0.292 HD
ENDBRANCH  80  83
ENDBRANCH  76  77
ENDBRANCH  11  76
ENDBRANCH   8  11
ENDBRANCH   6   7
BRANCH   6  85
ATOM     85  CB  MET A  11      18.067  12.234   7.391  0.00  0.00    +0.041 C 
BRANCH  85  86
ATOM     86  CG  MET A  11      18.094  13.589   8.003  0.00  0.00    +0.060 C 
BRANCH  86  87
ATOM     87  SD  MET A  11      19.776  13.996   8.503  0.00  0.00    -0.139 S 
ATOM     88  CE  MET A  11      19.851  15.618   7.766  0.00  0.00    +0.069 C 
ENDBRANCH  86  87
ENDBRANCH  85  86
ENDBRANCH   6  85
ENDBRANCH   4   6
ENDBRANCH   1   2
BRANCH   1  91
ATOM     89  C   LEU A   9      17.545   7.110  10.327  0.00  0.00    +0.241 C 
ATOM     90  O   LEU A   9      18.615   6.863   9.761  0.00  0.00    -0.273 OA
ATOM     91  N   TYR A  10      16.506   7.683   9.723  0.00  0.00    -0.297 N 
ATOM     92  H   TYR A  10      15.616   7.789  10.250  0.00  0.00    +0.150 HD
BRANCH  89  93
ATOM     93  CA  LEU A   9      17.329   6.728  11.783  0.00  0.00    +0.149 C 
BRANCH  93  95
ATOM     94  C   VAL A   8      16.585   4.438  11.760  0.00  0.00    +0.241 C 
ATOM     95  N   LEU A   9      17.563   5.311  11.957  0.00  0.00    -0.297 N 
ATOM     96  H   LEU A   9      18.506   4.975  12.239  0.00  0.00    +0.150 HD
ATOM     97  O   VAL A   8      15.491   4.757  11.323  0.00  0.00    -0.273 OA
BRANCH  94  98
ATOM     98  CA  VAL A   8      16.878   3.003  12.144  0.00  0.00    +0.149 C 
BRANCH  98 101
ATOM     99  C   PRO A   7      15.131   1.647  13.112  0.00  0.00    +0.241 C 
ATOM    100  O   PRO A   7      15.710   1.586  14.200  0.00  0.00    -0.273 OA
ATOM    101  N   VAL A   8      15.668   2.203  12.032  0.00  0.00    -0.297 N 
ATOM    102  H   VAL A   8      15.222   2.066  11.103  0.00  0.00    +0.150 HD
BRANCH  99 105
ATOM    103  C   ASP A   6      13.364   0.539  10.597  0.00  0.00    +0.244 C 
ATOM    104  N   PRO A   7      13.549   0.130  11.865  0.00  0.00    -0.272 N 
ATOM    105  CA  PRO A   7      13.721   1.071  12.978  0.00  0.00    +0.152 C 
ATOM    106  CB  PRO A   7      13.400   0.218  14.201  0.00  0.00    +0.031 C 
ATOM    107  CG  PRO A   7      13.852  -1.178  13.787  0.00  0.00    +0.024 C 
ATOM    108  CD  PRO A   7      13.519  -1.276  12.326  0.00  0.00    +0.094 C 
ATOM    109  O   ASP A   6      13.482   1.713  10.244  0.00  0.00    -0.273 OA
BRANCH 103 110
ATOM    110  CA  ASP A   6      12.973  -0.529   9.585  0.00  0.00    +0.160 C 
BRANCH 110 112
ATOM    111  C   LYS A   5      11.003  -1.950   9.424  0.00  0.00    +0.241 C 
ATOM    112  N   ASP A   6      11.523  -0.752   9.658  0.00  0.00    -0.297 N 
ATOM    113  H   ASP A   6      10.894   0.041   9.897  0.00  0.00    +0.150 HD
ATOM    114  O   LYS A   5      11.669  -2.890   8.997  0.00  0.00    -0.273 OA
BRANCH 111 115
ATOM    115  CA  LYS A   5       9.509  -2.117   9.700  0.00  0.00    +0.149 C 
BRANCH 115 118
ATOM    116  C   GLU A   4       8.715  -0.729  11.539  0.00  0.00    +0.241 C 
ATOM    117  O   GLU A   4       9.136  -1.529  12.371  0.00  0.00    -0.273 OA
ATOM    118  N   LYS A   5       8.896  -0.891  10.229  0.00  0.00    -0.297 N 
ATOM    119  H   LYS A   5       8.600  -0.140   9.573  0.00  0.00    +0.150 HD
BRANCH 116 120
ATOM    120  CA  GLU A   4       7.988   0.537  11.997  0.00  0.00    +0.149 C 
BRANCH 120 123
ATOM    121  C   TYR A   3       9.735   2.008  11.172  0.00  0.00    +0.241 C 
ATOM    122  O   TYR A   3      10.633   1.381  11.740  0.00  0.00    -0.273 OA
ATOM    123  N   GLU A   4       8.449   1.695  11.260  0.00  0.00    -0.297 N 
ATOM    124  H   GLU A   4       7.750   2.300  10.785  0.00  0.00    +0.150 HD
BRANCH 121 125
ATOM    125  CA  TYR A   3      10.032   3.225  10.327  0.00  0.00    +0.153 C 
BRANCH 125 128
ATOM    126  C   THR A   2      10.955   5.336  11.059  0.00  0.00    +0.243 C 
ATOM    127  O   THR A   2       9.871   5.898  10.900  0.00  0.00    -0.273 OA
ATOM    128  N   TYR A   3      11.123   4.035  10.857  0.00  0.00    -0.297 N 
ATOM    129  H   TYR A   3      12.037   3.591  11.078  0.00  0.00    +0.150 HD
BRANCH 126 130
ATOM    130  CA  THR A   2      12.181   6.127  11.490  0.00  0.00    +0.176 C 
BRANCH 130 132
ATOM    131  C   ILE A   1      12.715   8.375  10.814  0.00  0.00    +0.238 C 
ATOM    132  N   THR A   2      11.894   7.554  11.458  0.00  0.00    -0.295 N 
ATOM    133  H   THR A   2      11.050   7.928  11.937  0.00  0.00    +0.150 HD
ATOM    134  O   ILE A   1      13.805   8.002  10.373  0.00  0.00    -0.274 OA
BRANCH 131 135
ATOM    135  CA  ILE A   1      12.277   9.830  10.673  0.00  0.00    +0.145 C 
BRANCH 135 136
ATOM    136  CB  ILE A   1      11.481  10.059   9.348  0.00  0.00    +0.025 C 
ATOM    137  CG2 ILE A   1      12.395   9.907   8.113  0.00  0.00    +0.002 C 
BRANCH 136 138
ATOM    138  CG1 ILE A   1      10.282   9.120   9.245  0.00  0.00    +0.002 C 
ATOM    139  CD1 ILE A   1       9.276   9.553   8.154  0.00  0.00    +0.000 C 
ENDBRANCH 136 138
ENDBRANCH 135 136
BRANCH 135 140
ATOM    140  N   ILE A   1      13.452  10.692  10.742  0.00  0.00    -0.238 NA
ATOM    141  H   ILE A   1      14.358  10.346  10.367  0.00  0.00    +0.142 HD
ENDBRANCH 135 140
ENDBRANCH 131 135
ENDBRANCH 130 132
BRANCH 130 142
ATOM    142  CB  THR A   2      12.710   5.650  12.874  0.00  0.00    +0.137 C 
ATOM    143  CG2 THR A   2      11.615   5.697  13.929  0.00  0.00    +0.034 C 
BRANCH 142 144
ATOM    144  OG1 THR A   2      13.218   4.307  12.764  0.00  0.00    -0.382 OA
ATOM    145  HG1 THR A   2      13.957   4.288  12.106  0.00  0.00    +0.210 HD
ENDBRANCH 142 144
ENDBRANCH 130 142
ENDBRANCH 126 130
ENDBRANCH 125 128
BRANCH 125 146
ATOM    146  CB  TYR A   3      10.294   2.846   8.868  0.00  0.00    +0.055 C 
BRANCH 146 147
ATOM    147  CG  TYR A   3      10.468   4.084   8.010  0.00  0.00    -0.020 A 
ATOM    148  CD2 TYR A   3      11.719   4.683   7.861  0.00  0.00    -0.001 A 
ATOM    149  CE2 TYR A   3      11.881   5.835   7.097  0.00  0.00    +0.036 A 
ATOM    150  CZ  TYR A   3      10.781   6.404   6.487  0.00  0.00    +0.134 A 
ATOM    151  CE1 TYR A   3       9.525   5.832   6.634  0.00  0.00    +0.036 A 
ATOM    152  CD1 TYR A   3       9.374   4.682   7.390  0.00  0.00    -0.001 A 
BRANCH 150 153
ATOM    153  OH  TYR A   3      10.928   7.550   5.728  0.00  0.00    -0.506 OA
ATOM    154  HH  TYR A   3      10.634   7.370   4.800  0.00  0.00    +0.292 HD
ENDBRANCH 150 153
ENDBRANCH 146 147
ENDBRANCH 125 146
ENDBRANCH 121 125
ENDBRANCH 120 123
BRANCH 120 155
ATOM    155  CB  GLU A   4       6.469   0.405  11.854  0.00  0.00    +0.041 C 
BRANCH 155 156
ATOM    156  CG  GLU A   4       5.967  -0.990  11.572  0.00  0.00    +0.116 C 
BRANCH 156 157
ATOM    157  CD  GLU A   4       4.459  -1.032  11.409  0.00  0.00    +0.365 C 
ATOM    158  OE2 GLU A   4       3.750  -0.779  12.407  0.00  0.00    -0.246 OA
ATOM    159  OE1 GLU A   4       3.989  -1.308  10.282  0.00  0.00    -0.246 OA
ENDBRANCH 156 157
ENDBRANCH 155 156
ENDBRANCH 120 155
ENDBRANCH 116 120
ENDBRANCH 115 118
BRANCH 115 160
ATOM    160  CB  LYS A   5       8.787  -2.611   8.437  0.00  0.00    +0.029 C 
BRANCH 160 161
ATOM    161  CG  LYS A   5       7.343  -3.060   8.684  0.00  0.00    +0.000 C 
BRANCH 161 162
ATOM    162  CD  LYS A   5       6.784  -3.867   7.517  0.00  0.00    -0.024 C 
BRANCH 162 163
ATOM    163  CE  LYS A   5       7.354  -5.284   7.493  0.00  0.00    -0.086 C 
BRANCH 163 164
ATOM    164  NZ  LYS A   5       6.595  -6.191   6.582  0.00  0.00    +0.380 N 
ATOM    165  HZ1 LYS A   5       5.606  -6.249   6.898  0.00  0.00    -0.089 HD
ATOM    166  HZ2 LYS A   5       7.023  -7.139   6.603  0.00  0.00    -0.089 HD
ATOM    167  HZ3 LYS A   5       6.630  -5.815   5.613  0.00  0.00    -0.089 HD
ENDBRANCH 163 164
ENDBRANCH 162 163
ENDBRANCH 161 162
ENDBRANCH 160 161
ENDBRANCH 115 160
ENDBRANCH 111 115
ENDBRANCH 110 112
BRANCH 110 168
ATOM    168  CB  ASP A   6      13.406  -0.115   8.175  0.00  0.00    +0.143 C 
BRANCH 168 169
ATOM    169  CG  ASP A   6      14.925  -0.154   7.989  0.00  0.00    +0.367 C 
ATOM    170  OD2 ASP A   6      15.641  -0.449   8.967  0.00  0.00    -0.246 OA
ATOM    171  OD1 ASP A   6      15.408   0.131   6.871  0.00  0.00    -0.246 OA
ENDBRANCH 168 169
ENDBRANCH 110 168
ENDBRANCH 103 110
ENDBRANCH  99 105
ENDBRANCH  98 101
BRANCH  98 172
ATOM    172  CB  VAL A   8      18.077   2.444  11.332  0.00  0.00    +0.027 C 
ATOM    173  CG2 VAL A   8      18.498   1.082  11.879  0.00  0.00    +0.002 C 
ATOM    174  CG1 VAL A   8      17.751   2.361   9.856  0.00  0.00    +0.002 C 
ENDBRANCH  98 172
ENDBRANCH  94  98
ENDBRANCH  93  95
BRANCH  93 175
ATOM    175  CB  LEU A   9      18.252   7.537  12.705  0.00  0.00    +0.029 C 
BRANCH 175 176
ATOM    176  CG  LEU A   9      18.115   9.058  12.640  0.00  0.00    +0.002 C 
ATOM    177  CD2 LEU A   9      19.178   9.749  13.509  0.00  0.00    +0.000 C 
ATOM    178  CD1 LEU A   9      16.697   9.455  13.067  0.00  0.00    +0.000 C 
ENDBRANCH 175 176
ENDBRANCH  93 175
ENDBRANCH  89  93
ENDBRANCH   1  91
BRANCH   1 179
ATOM    179  CB  TYR A  10      15.474   7.547   7.485  0.00  0.00    +0.055 C 
BRANCH 179 180
ATOM    180  CG  TYR A  10      15.754   6.117   7.083  0.00  0.00    -0.020 A 
ATOM    181  CD2 TYR A  10      15.354   5.049   7.885  0.00  0.00    -0.001 A 
ATOM    182  CE2 TYR A  10      15.615   3.734   7.502  0.00  0.00    +0.036 A 
ATOM    183  CZ  TYR A  10      16.302   3.498   6.314  0.00  0.00    +0.134 A 
ATOM    184  CE1 TYR A  10      16.706   4.550   5.522  0.00  0.00    +0.036 A 
ATOM    185  CD1 TYR A  10      16.435   5.838   5.906  0.00  0.00    -0.001 A 
BRANCH 183 186
ATOM    186  OH  TYR A  10      16.585   2.221   5.896  0.00  0.00    -0.506 OA
ATOM    187  HH  TYR A  10      16.238   1.573   6.559  0.00  0.00    +0.292 HD
ENDBRANCH 183 186
ENDBRANCH 179 180
ENDBRANCH   1 179
TORSDOF 78
REMARK  Name = ../refined-set-2016/4h75/4h75_pocket.pdb
REMARK  236 active torsions:
REMARK  status: ('A' for Active; 'I' for Inactive)
REMARK    1  A    between atoms: _1  and  _3
REMARK    2  A    between atoms: _3  and  _4
REMARK    3  A    between atoms: _3  and  _6
REMARK    4  A    between atoms: _6  and  _7
REMARK    5  A    between atoms: _17  and  _19
REMARK    6  A    between atoms: _19  and  _20
REMARK    7  A    between atoms: _19  and  _22
REMARK    8  A    between atoms: _22  and  _23
REMARK    9  A    between atoms: _23  and  _24
REMARK   10  A    between atoms: _24  and  _25
REMARK   11  A    between atoms: _25  and  _26
REMARK   12  A    between atoms: _30  and  _32
REMARK   13  A    between atoms: _32  and  _33
REMARK   14  A    between atoms: _32  and  _35
REMARK   15  A    between atoms: _35  and  _36
REMARK   16  A    between atoms: _41  and  _42
REMARK   17  A    between atoms: _44  and  _46
REMARK   18  A    between atoms: _46  and  _47
REMARK   19  A    between atoms: _46  and  _49
REMARK   20  A    between atoms: _49  and  _50
REMARK   21  A    between atoms: _53  and  _55
REMARK   22  A    between atoms: _55  and  _56
REMARK   23  A    between atoms: _58  and  _60
REMARK   24  A    between atoms: _60  and  _61
REMARK   25  A    between atoms: _60  and  _63
REMARK   26  A    between atoms: _63  and  _64
REMARK   27  A    between atoms: _70  and  _72
REMARK   28  A    between atoms: _72  and  _73
REMARK   29  A    between atoms: _72  and  _75
REMARK   30  A    between atoms: _75  and  _76
REMARK   31  A    between atoms: _79  and  _81
REMARK   32  A    between atoms: _81  and  _82
REMARK   33  A    between atoms: _81  and  _84
REMARK   34  A    between atoms: _86  and  _88
REMARK   35  A    between atoms: _88  and  _89
REMARK   36  A    between atoms: _88  and  _91
REMARK   37  A    between atoms: _94  and  _96
REMARK   38  A    between atoms: _96  and  _97
REMARK   39  A    between atoms: _96  and  _99
REMARK   40  A    between atoms: _99  and  _100
REMARK   41  A    between atoms: _105  and  _106
REMARK   42  A    between atoms: _108  and  _110
REMARK   43  A    between atoms: _110  and  _111
REMARK   44  A    between atoms: _110  and  _113
REMARK   45  A    between atoms: _113  and  _114
REMARK   46  A    between atoms: _119  and  _121
REMARK   47  A    between atoms: _121  and  _122
REMARK   48  A    between atoms: _121  and  _124
REMARK   49  A    between atoms: _124  and  _125
REMARK   50  A    between atoms: _125  and  _126
REMARK   51  A    between atoms: _128  and  _130
REMARK   52  A    between atoms: _130  and  _131
REMARK   53  A    between atoms: _130  and  _133
REMARK   54  A    between atoms: _133  and  _134
REMARK   55  A    between atoms: _140  and  _142
REMARK   56  A    between atoms: _142  and  _143
REMARK   57  A    between atoms: _142  and  _145
REMARK   58  A    between atoms: _145  and  _146
REMARK   59  A    between atoms: _146  and  _147
REMARK   60  A    between atoms: _150  and  _152
REMARK   61  A    between atoms: _152  and  _153
REMARK   62  A    between atoms: _152  and  _155
REMARK   63  A    between atoms: _155  and  _156
REMARK   64  A    between atoms: _159  and  _161
REMARK   65  A    between atoms: _161  and  _162
REMARK   66  A    between atoms: _161  and  _164
REMARK   67  A    between atoms: _164  and  _165
REMARK   68  A    between atoms: _165  and  _166
REMARK   69  A    between atoms: _169  and  _171
REMARK   70  A    between atoms: _171  and  _172
REMARK   71  A    between atoms: _171  and  _174
REMARK   72  A    between atoms: _174  and  _175
REMARK   73  A    between atoms: _178  and  _180
REMARK   74  A    between atoms: _180  and  _181
REMARK   75  A    between atoms: _183  and  _185
REMARK   76  A    between atoms: _185  and  _186
REMARK   77  A    between atoms: _185  and  _188
REMARK   78  A    between atoms: _188  and  _189
REMARK   79  A    between atoms: _191  and  _193
REMARK   80  A    between atoms: _193  and  _194
REMARK   81  A    between atoms: _193  and  _196
REMARK   82  A    between atoms: _196  and  _197
REMARK   83  A    between atoms: _197  and  _198
REMARK   84  A    between atoms: _198  and  _199
REMARK   85  A    between atoms: _199  and  _200
REMARK   86  A    between atoms: _204  and  _206
REMARK   87  A    between atoms: _206  and  _207
REMARK   88  A    between atoms: _206  and  _209
REMARK   89  A    between atoms: _209  and  _210
REMARK   90  A    between atoms: _213  and  _215
REMARK   91  A    between atoms: _215  and  _216
REMARK   92  A    between atoms: _215  and  _218
REMARK   93  A    between atoms: _218  and  _219
REMARK   94  A    between atoms: _219  and  _220
REMARK   95  A    between atoms: _223  and  _225
REMARK   96  A    between atoms: _225  and  _226
REMARK   97  A    between atoms: _225  and  _228
REMARK   98  A    between atoms: _228  and  _229
REMARK   99  A    between atoms: _239  and  _241
REMARK  100  A    between atoms: _241  and  _242
REMARK  101  A    between atoms: _241  and  _244
REMARK  102  A    between atoms: _244  and  _245
REMARK  103  A    between atoms: _245  and  _246
REMARK  104  A    between atoms: _246  and  _247
REMARK  105  A    between atoms: _256  and  _258
REMARK  106  A    between atoms: _258  and  _259
REMARK  107  A    between atoms: _258  and  _261
REMARK  108  A    between atoms: _261  and  _262
REMARK  109  A    between atoms: _265  and  _267
REMARK  110  A    between atoms: _267  and  _268
REMARK  111  A    between atoms: _267  and  _270
REMARK  112  A    between atoms: _270  and  _271
REMARK  113  A    between atoms: _281  and  _283
REMARK  114  A    between atoms: _283  and  _284
REMARK  115  A    between atoms: _283  and  _286
REMARK  116  A    between atoms: _286  and  _287
REMARK  117  A    between atoms: _293  and  _295
REMARK  118  A    between atoms: _295  and  _296
REMARK  119  A    between atoms: _295  and  _298
REMARK  120  A    between atoms: _298  and  _299
REMARK  121  A    between atoms: _302  and  _304
REMARK  122  A    between atoms: _304  and  _305
REMARK  123  A    between atoms: _304  and  _307
REMARK  124  A    between atoms: _307  and  _308
REMARK  125  A    between atoms: _311  and  _313
REMARK  126  A    between atoms: _313  and  _314
REMARK  127  A    between atoms: _313  and  _316
REMARK  128  A    between atoms: _316  and  _317
REMARK  129  A    between atoms: _322  and  _323
REMARK  130  A    between atoms: _325  and  _327
REMARK  131  A    between atoms: _327  and  _328
REMARK  132  A    between atoms: _327  and  _330
REMARK  133  A    between atoms: _330  and  _331
REMARK  134  A    between atoms: _331  and  _332
REMARK  135  A    between atoms: _335  and  _337
REMARK  136  A    between atoms: _337  and  _338
REMARK  137  A    between atoms: _337  and  _340
REMARK  138  A    between atoms: _340  and  _341
REMARK  139  A    between atoms: _341  and  _342
REMARK  140  A    between atoms: _342  and  _343
REMARK  141  A    between atoms: _343  and  _344
REMARK  142  A    between atoms: _348  and  _350
REMARK  143  A    between atoms: _350  and  _351
REMARK  144  A    between atoms: _350  and  _353
REMARK  145  A    between atoms: _353  and  _354
REMARK  146  A    between atoms: _358  and  _359
REMARK  147  A    between atoms: _364  and  _366
REMARK  148  A    between atoms: _366  and  _367
REMARK  149  A    between atoms: _366  and  _369
REMARK  150  A    between atoms: _372  and  _374
REMARK  151  A    between atoms: _374  and  _375
REMARK  152  A    between atoms: _374  and  _377
REMARK  153  A    between atoms: _377  and  _378
REMARK  154  A    between atoms: _381  and  _383
REMARK  155  A    between atoms: _383  and  _384
REMARK  156  A    between atoms: _383  and  _386
REMARK  157  A    between atoms: _386  and  _387
REMARK  158  A    between atoms: _392  and  _393
REMARK  159  A    between atoms: _395  and  _397
REMARK  160  A    between atoms: _397  and  _398
REMARK  161  A    between atoms: _397  and  _400
REMARK  162  A    between atoms: _400  and  _401
REMARK  163  A    between atoms: _401  and  _402
REMARK  164  A    between atoms: _404  and  _406
REMARK  165  A    between atoms: _406  and  _407
REMARK  166  A    between atoms: _406  and  _409
REMARK  167  A    between atoms: _409  and  _410
REMARK  168  A    between atoms: _415  and  _416
REMARK  169  A    between atoms: _418  and  _420
REMARK  170  A    between atoms: _420  and  _421
REMARK  171  A    between atoms: _420  and  _423
REMARK  172  A    between atoms: _423  and  _424
REMARK  173  A    between atoms: _424  and  _425
REMARK  174  A    between atoms: _430  and  _432
REMARK  175  A    between atoms: _432  and  _433
REMARK  176  A    between atoms: _432  and  _435
REMARK  177  A    between atoms: _435  and  _436
REMARK  178  A    between atoms: _439  and  _441
REMARK  179  A    between atoms: _441  and  _442
REMARK  180  A    between atoms: _441  and  _444
REMARK  181  A    between atoms: _444  and  _445
REMARK  182  A    between atoms: _448  and  _450
REMARK  183  A    between atoms: _450  and  _451
REMARK  184  A    between atoms: _450  and  _453
REMARK  185  A    between atoms: _453  and  _454
REMARK  186  A    between atoms: _457  and  _459
REMARK  187  A    between atoms: _459  and  _460
REMARK  188  A    between atoms: _459  and  _462
REMARK  189  A    between atoms: _462  and  _463
REMARK  190  A    between atoms: _466  and  _468
REMARK  191  A    between atoms: _468  and  _469
REMARK  192  A    between atoms: _468  and  _471
REMARK  193  A    between atoms: _471  and  _472
REMARK  194  A    between atoms: _477  and  _478
REMARK  195  A    between atoms: _480  and  _482
REMARK  196  A    between atoms: _482  and  _483
REMARK  197  A    between atoms: _482  and  _485
REMARK  198  A    between atoms: _485  and  _486
REMARK  199  A    between atoms: _486  and  _487
REMARK  200  A    between atoms: _490  and  _492
REMARK  201  A    between atoms: _492  and  _493
REMARK  202  A    between atoms: _495  and  _497
REMARK  203  A    between atoms: _497  and  _498
REMARK  204  A    between atoms: _497  and  _500
REMARK  205  A    between atoms: _500  and  _501
REMARK  206  A    between atoms: _504  and  _506
REMARK  207  A    between atoms: _506  and  _507
REMARK  208  A    between atoms: _506  and  _509
REMARK  209  A    between atoms: _509  and  _510
REMARK  210  A    between atoms: _513  and  _515
REMARK  211  A    between atoms: _515  and  _516
REMARK  212  A    between atoms: _515  and  _518
REMARK  213  A    between atoms: _518  and  _519
REMARK  214  A    between atoms: _519  and  _520
REMARK  215  A    between atoms: _520  and  _521
REMARK  216  A    between atoms: _530  and  _532
REMARK  217  A    between atoms: _532  and  _533
REMARK  218  A    between atoms: _532  and  _535
REMARK  219  A    between atoms: _535  and  _536
REMARK  220  A    between atoms: _539  and  _541
REMARK  221  A    between atoms: _541  and  _542
REMARK  222  A    between atoms: _541  and  _544
REMARK  223  A    between atoms: _544  and  _545
REMARK  224  A    between atoms: _551  and  _553
REMARK  225  A    between atoms: _553  and  _554
REMARK  226  A    between atoms: _553  and  _556
REMARK  227  A    between atoms: _556  and  _557
REMARK  228  A    between atoms: _562  and  _564
REMARK  229  A    between atoms: _564  and  _565
REMARK  230  A    between atoms: _564  and  _567
REMARK  231  A    between atoms: _567  and  _568
REMARK  232  A    between atoms: _571  and  _573
REMARK  233  A    between atoms: _573  and  _574
REMARK  234  A    between atoms: _573  and  _576
REMARK  235  A    between atoms: _576  and  _577
REMARK  236  A    between atoms: _582  and  _583
REMARK                            x       y       z     vdW  Elec       q    Type
REMARK                         _______ _______ _______ _____ _____    ______ ____
ROOT
ATOM      1  C   GLY A   2       1.472  12.524  -1.118  0.00  0.00    +0.243 C 
ATOM      2  N   ASP A   3       2.763  12.448  -0.798  0.00  0.00    -0.296 N 
ATOM      3  H   ASP A   3       3.319  13.325  -0.740  0.00  0.00    +0.150 HD
ATOM      4  O   GLY A   2       0.734  11.537  -1.163  0.00  0.00    -0.273 OA
ENDROOT
BRANCH   1   5
ATOM      5  CA  GLY A   2       0.917  13.907  -1.424  0.00  0.00    +0.176 C 
BRANCH   5   7
ATOM      6  C   GLU A   1       2.425  14.913  -3.043  0.00  0.00    +0.238 C 
ATOM      7  N   GLY A   2       1.907  14.894  -1.819  0.00  0.00    -0.296 N 
ATOM      8  H   GLY A   2       2.219  15.604  -1.126  0.00  0.00    +0.150 HD
ATOM      9  O   GLU A   1       2.113  14.095  -3.908  0.00  0.00    -0.274 OA
BRANCH   6  10
ATOM     10  CA  GLU A   1       3.426  16.034  -3.345  0.00  0.00    +0.145 C 
BRANCH  10  11
ATOM     11  N   GLU A   1       3.717  16.854  -2.176  0.00  0.00    -0.238 NA
ATOM     12  H   GLU A   1       4.483  16.575  -1.530  0.00  0.00    +0.142 HD
ENDBRANCH  10  11
BRANCH  10  13
ATOM     13  CB  GLU A   1       4.723  15.489  -3.946  0.00  0.00    +0.038 C 
BRANCH  13  14
ATOM     14  CG  GLU A   1       5.697  16.597  -4.325  0.00  0.00    +0.116 C 
BRANCH  14  15
ATOM     15  CD  GLU A   1       6.975  16.081  -4.951  0.00  0.00    +0.365 C 
ATOM     16  OE2 GLU A   1       7.129  14.847  -5.065  0.00  0.00    -0.246 OA
ATOM     17  OE1 GLU A   1       7.826  16.914  -5.331  0.00  0.00    -0.246 OA
ENDBRANCH  14  15
ENDBRANCH  13  14
ENDBRANCH  10  13
ENDBRANCH   6  10
ENDBRANCH   5   7
ENDBRANCH   1   5
BRANCH   2  18
ATOM     18  CA  ASP A   3       3.426  11.170  -0.525  0.00  0.00    +0.160 C 
BRANCH  18  19
ATOM     19  C   ASP A   3       3.728  10.970   0.960  0.00  0.00    +0.241 C 
ATOM     20  N   LEU A   4       3.103  11.784   1.804  0.00  0.00    -0.298 N 
ATOM     21  H   LEU A   4       2.458  12.505   1.422  0.00  0.00    +0.150 HD
ATOM     22  O   ASP A   3       4.505  10.091   1.330  0.00  0.00    -0.273 OA
BRANCH  20  23
ATOM     23  CA  LEU A   4       3.290  11.701   3.245  0.00  0.00    +0.137 C 
BRANCH  23  24
ATOM     24  C   LEU A   4       1.991  12.033   3.962  0.00  0.00    +0.227 C 
ATOM     25  O   LEU A   4       1.576  13.190   3.998  0.00  0.00    -0.286 OA
ENDBRANCH  23  24
BRANCH  23  26
ATOM     26  CB  LEU A   4       4.375  12.678   3.695  0.00  0.00    +0.028 C 
BRANCH  26  27
ATOM     27  CG  LEU A   4       4.725  12.643   5.182  0.00  0.00    +0.002 C 
ATOM     28  CD2 LEU A   4       5.399  11.336   5.539  0.00  0.00    +0.000 C 
ATOM     29  CD1 LEU A   4       5.620  13.817   5.538  0.00  0.00    +0.000 C 
ENDBRANCH  26  27
ENDBRANCH  23  26
ENDBRANCH  20  23
ENDBRANCH  18  19
BRANCH  18  30
ATOM     30  CB  ASP A   3       4.725  11.047  -1.335  0.00  0.00    +0.143 C 
BRANCH  30  31
ATOM     31  CG  ASP A   3       4.471  10.873  -2.824  0.00  0.00    +0.367 C 
ATOM     32  OD2 ASP A   3       3.442  10.259  -3.185  0.00  0.00    -0.246 OA
ATOM     33  OD1 ASP A   3       5.300  11.347  -3.628  0.00  0.00    -0.246 OA
ENDBRANCH  30  31
ENDBRANCH  18  30
ENDBRANCH   2  18
TORSDOF 15
REMARK  Name = ../refined-set-2016/4h75/4h75_pocket.pdb
REMARK  236 active torsions:
REMARK  status: ('A' for Active; 'I' for Inactive)
REMARK    1  A    between atoms: _1  and  _3
REMARK    2  A    between atoms: _3  and  _4
REMARK    3  A    between atoms: _3  and  _6
REMARK    4  A    between atoms: _6  and  _7
REMARK    5  A    between atoms: _17  and  _19
REMARK    6  A    between atoms: _19  and  _20
REMARK    7  A    between atoms: _19  and  _22
REMARK    8  A    between atoms: _22  and  _23
REMARK    9  A    between atoms: _23  and  _24
REMARK   10  A    between atoms: _24  and  _25
REMARK   11  A    between atoms: _25  and  _26
REMARK   12  A    between atoms: _30  and  _32
REMARK   13  A    between atoms: _32  and  _33
REMARK   14  A    between atoms: _32  and  _35
REMARK   15  A    between atoms: _35  and  _36
REMARK   16  A    between atoms: _41  and  _42
REMARK   17  A    between atoms: _44  and  _46
REMARK   18  A    between atoms: _46  and  _47
REMARK   19  A    between atoms: _46  and  _49
REMARK   20  A    between atoms: _49  and  _50
REMARK   21  A    between atoms: _53  and  _55
REMARK   22  A    between atoms: _55  and  _56
REMARK   23  A    between atoms: _58  and  _60
REMARK   24  A    between atoms: _60  and  _61
REMARK   25  A    between atoms: _60  and  _63
REMARK   26  A    between atoms: _63  and  _64
REMARK   27  A    between atoms: _70  and  _72
REMARK   28  A    between atoms: _72  and  _73
REMARK   29  A    between atoms: _72  and  _75
REMARK   30  A    between atoms: _75  and  _76
REMARK   31  A    between atoms: _79  and  _81
REMARK   32  A    between atoms: _81  and  _82
REMARK   33  A    between atoms: _81  and  _84
REMARK   34  A    between atoms: _86  and  _88
REMARK   35  A    between atoms: _88  and  _89
REMARK   36  A    between atoms: _88  and  _91
REMARK   37  A    between atoms: _94  and  _96
REMARK   38  A    between atoms: _96  and  _97
REMARK   39  A    between atoms: _96  and  _99
REMARK   40  A    between atoms: _99  and  _100
REMARK   41  A    between atoms: _105  and  _106
REMARK   42  A    between atoms: _108  and  _110
REMARK   43  A    between atoms: _110  and  _111
REMARK   44  A    between atoms: _110  and  _113
REMARK   45  A    between atoms: _113  and  _114
REMARK   46  A    between atoms: _119  and  _121
REMARK   47  A    between atoms: _121  and  _122
REMARK   48  A    between atoms: _121  and  _124
REMARK   49  A    between atoms: _124  and  _125
REMARK   50  A    between atoms: _125  and  _126
REMARK   51  A    between atoms: _128  and  _130
REMARK   52  A    between atoms: _130  and  _131
REMARK   53  A    between atoms: _130  and  _133
REMARK   54  A    between atoms: _133  and  _134
REMARK   55  A    between atoms: _140  and  _142
REMARK   56  A    between atoms: _142  and  _143
REMARK   57  A    between atoms: _142  and  _145
REMARK   58  A    between atoms: _145  and  _146
REMARK   59  A    between atoms: _146  and  _147
REMARK   60  A    between atoms: _150  and  _152
REMARK   61  A    between atoms: _152  and  _153
REMARK   62  A    between atoms: _152  and  _155
REMARK   63  A    between atoms: _155  and  _156
REMARK   64  A    between atoms: _159  and  _161
REMARK   65  A    between atoms: _161  and  _162
REMARK   66  A    between atoms: _161  and  _164
REMARK   67  A    between atoms: _164  and  _165
REMARK   68  A    between atoms: _165  and  _166
REMARK   69  A    between atoms: _169  and  _171
REMARK   70  A    between atoms: _171  and  _172
REMARK   71  A    between atoms: _171  and  _174
REMARK   72  A    between atoms: _174  and  _175
REMARK   73  A    between atoms: _178  and  _180
REMARK   74  A    between atoms: _180  and  _181
REMARK   75  A    between atoms: _183  and  _185
REMARK   76  A    between atoms: _185  and  _186
REMARK   77  A    between atoms: _185  and  _188
REMARK   78  A    between atoms: _188  and  _189
REMARK   79  A    between atoms: _191  and  _193
REMARK   80  A    between atoms: _193  and  _194
REMARK   81  A    between atoms: _193  and  _196
REMARK   82  A    between atoms: _196  and  _197
REMARK   83  A    between atoms: _197  and  _198
REMARK   84  A    between atoms: _198  and  _199
REMARK   85  A    between atoms: _199  and  _200
REMARK   86  A    between atoms: _204  and  _206
REMARK   87  A    between atoms: _206  and  _207
REMARK   88  A    between atoms: _206  and  _209
REMARK   89  A    between atoms: _209  and  _210
REMARK   90  A    between atoms: _213  and  _215
REMARK   91  A    between atoms: _215  and  _216
REMARK   92  A    between atoms: _215  and  _218
REMARK   93  A    between atoms: _218  and  _219
REMARK   94  A    between atoms: _219  and  _220
REMARK   95  A    between atoms: _223  and  _225
REMARK   96  A    between atoms: _225  and  _226
REMARK   97  A    between atoms: _225  and  _228
REMARK   98  A    between atoms: _228  and  _229
REMARK   99  A    between atoms: _239  and  _241
REMARK  100  A    between atoms: _241  and  _242
REMARK  101  A    between atoms: _241  and  _244
REMARK  102  A    between atoms: _244  and  _245
REMARK  103  A    between atoms: _245  and  _246
REMARK  104  A    between atoms: _246  and  _247
REMARK  105  A    between atoms: _256  and  _258
REMARK  106  A    between atoms: _258  and  _259
REMARK  107  A    between atoms: _258  and  _261
REMARK  108  A    between atoms: _261  and  _262
REMARK  109  A    between atoms: _265  and  _267
REMARK  110  A    between atoms: _267  and  _268
REMARK  111  A    between atoms: _267  and  _270
REMARK  112  A    between atoms: _270  and  _271
REMARK  113  A    between atoms: _281  and  _283
REMARK  114  A    between atoms: _283  and  _284
REMARK  115  A    between atoms: _283  and  _286
REMARK  116  A    between atoms: _286  and  _287
REMARK  117  A    between atoms: _293  and  _295
REMARK  118  A    between atoms: _295  and  _296
REMARK  119  A    between atoms: _295  and  _298
REMARK  120  A    between atoms: _298  and  _299
REMARK  121  A    between atoms: _302  and  _304
REMARK  122  A    between atoms: _304  and  _305
REMARK  123  A    between atoms: _304  and  _307
REMARK  124  A    between atoms: _307  and  _308
REMARK  125  A    between atoms: _311  and  _313
REMARK  126  A    between atoms: _313  and  _314
REMARK  127  A    between atoms: _313  and  _316
REMARK  128  A    between atoms: _316  and  _317
REMARK  129  A    between atoms: _322  and  _323
REMARK  130  A    between atoms: _325  and  _327
REMARK  131  A    between atoms: _327  and  _328
REMARK  132  A    between atoms: _327  and  _330
REMARK  133  A    between atoms: _330  and  _331
REMARK  134  A    between atoms: _331  and  _332
REMARK  135  A    between atoms: _335  and  _337
REMARK  136  A    between atoms: _337  and  _338
REMARK  137  A    between atoms: _337  and  _340
REMARK  138  A    between atoms: _340  and  _341
REMARK  139  A    between atoms: _341  and  _342
REMARK  140  A    between atoms: _342  and  _343
REMARK  141  A    between atoms: _343  and  _344
REMARK  142  A    between atoms: _348  and  _350
REMARK  143  A    between atoms: _350  and  _351
REMARK  144  A    between atoms: _350  and  _353
REMARK  145  A    between atoms: _353  and  _354
REMARK  146  A    between atoms: _358  and  _359
REMARK  147  A    between atoms: _364  and  _366
REMARK  148  A    between atoms: _366  and  _367
REMARK  149  A    between atoms: _366  and  _369
REMARK  150  A    between atoms: _372  and  _374
REMARK  151  A    between atoms: _374  and  _375
REMARK  152  A    between atoms: _374  and  _377
REMARK  153  A    between atoms: _377  and  _378
REMARK  154  A    between atoms: _381  and  _383
REMARK  155  A    between atoms: _383  and  _384
REMARK  156  A    between atoms: _383  and  _386
REMARK  157  A    between atoms: _386  and  _387
REMARK  158  A    between atoms: _392  and  _393
REMARK  159  A    between atoms: _395  and  _397
REMARK  160  A    between atoms: _397  and  _398
REMARK  161  A    between atoms: _397  and  _400
REMARK  162  A    between atoms: _400  and  _401
REMARK  163  A    between atoms: _401  and  _402
REMARK  164  A    between atoms: _404  and  _406
REMARK  165  A    between atoms: _406  and  _407
REMARK  166  A    between atoms: _406  and  _409
REMARK  167  A    between atoms: _409  and  _410
REMARK  168  A    between atoms: _415  and  _416
REMARK  169  A    between atoms: _418  and  _420
REMARK  170  A    between atoms: _420  and  _421
REMARK  171  A    between atoms: _420  and  _423
REMARK  172  A    between atoms: _423  and  _424
REMARK  173  A    between atoms: _424  and  _425
REMARK  174  A    between atoms: _430  and  _432
REMARK  175  A    between atoms: _432  and  _433
REMARK  176  A    between atoms: _432  and  _435
REMARK  177  A    between atoms: _435  and  _436
REMARK  178  A    between atoms: _439  and  _441
REMARK  179  A    between atoms: _441  and  _442
REMARK  180  A    between atoms: _441  and  _444
REMARK  181  A    between atoms: _444  and  _445
REMARK  182  A    between atoms: _448  and  _450
REMARK  183  A    between atoms: _450  and  _451
REMARK  184  A    between atoms: _450  and  _453
REMARK  185  A    between atoms: _453  and  _454
REMARK  186  A    between atoms: _457  and  _459
REMARK  187  A    between atoms: _459  and  _460
REMARK  188  A    between atoms: _459  and  _462
REMARK  189  A    between atoms: _462  and  _463
REMARK  190  A    between atoms: _466  and  _468
REMARK  191  A    between atoms: _468  and  _469
REMARK  192  A    between atoms: _468  and  _471
REMARK  193  A    between atoms: _471  and  _472
REMARK  194  A    between atoms: _477  and  _478
REMARK  195  A    between atoms: _480  and  _482
REMARK  196  A    between atoms: _482  and  _483
REMARK  197  A    between atoms: _482  and  _485
REMARK  198  A    between atoms: _485  and  _486
REMARK  199  A    between atoms: _486  and  _487
REMARK  200  A    between atoms: _490  and  _492
REMARK  201  A    between atoms: _492  and  _493
REMARK  202  A    between atoms: _495  and  _497
REMARK  203  A    between atoms: _497  and  _498
REMARK  204  A    between atoms: _497  and  _500
REMARK  205  A    between atoms: _500  and  _501
REMARK  206  A    between atoms: _504  and  _506
REMARK  207  A    between atoms: _506  and  _507
REMARK  208  A    between atoms: _506  and  _509
REMARK  209  A    between atoms: _509  and  _510
REMARK  210  A    between atoms: _513  and  _515
REMARK  211  A    between atoms: _515  and  _516
REMARK  212  A    between atoms: _515  and  _518
REMARK  213  A    between atoms: _518  and  _519
REMARK  214  A    between atoms: _519  and  _520
REMARK  215  A    between atoms: _520  and  _521
REMARK  216  A    between atoms: _530  and  _532
REMARK  217  A    between atoms: _532  and  _533
REMARK  218  A    between atoms: _532  and  _535
REMARK  219  A    between atoms: _535  and  _536
REMARK  220  A    between atoms: _539  and  _541
REMARK  221  A    between atoms: _541  and  _542
REMARK  222  A    between atoms: _541  and  _544
REMARK  223  A    between atoms: _544  and  _545
REMARK  224  A    between atoms: _551  and  _553
REMARK  225  A    between atoms: _553  and  _554
REMARK  226  A    between atoms: _553  and  _556
REMARK  227  A    between atoms: _556  and  _557
REMARK  228  A    between atoms: _562  and  _564
REMARK  229  A    between atoms: _564  and  _565
REMARK  230  A    between atoms: _564  and  _567
REMARK  231  A    between atoms: _567  and  _568
REMARK  232  A    between atoms: _571  and  _573
REMARK  233  A    between atoms: _573  and  _574
REMARK  234  A    between atoms: _573  and  _576
REMARK  235  A    between atoms: _576  and  _577
REMARK  236  A    between atoms: _582  and  _583
REMARK                            x       y       z     vdW  Elec       q    Type
REMARK                         _______ _______ _______ _____ _____    ______ ____
ROOT
ATOM      1  NE  ARG A   1      22.349  -5.717  17.247  0.00  0.00    -0.265 N 
ATOM      2  HE  ARG A   1      21.470  -6.065  17.680  0.00  0.00    +0.259 HD
ATOM      3  CZ  ARG A   1      22.250  -4.919  16.188  0.00  0.00    +0.342 C 
ATOM      4  NH2 ARG A   1      21.055  -4.588  15.711  0.00  0.00    -0.292 N 
ATOM      5 HH21 ARG A   1      20.194  -4.953  16.166  0.00  0.00    +0.255 HD
ATOM      6 HH22 ARG A   1      20.980  -3.964  14.883  0.00  0.00    +0.255 HD
ATOM      7  NH1 ARG A   1      23.349  -4.448  15.608  0.00  0.00    -0.292 N 
ATOM      8 HH11 ARG A   1      24.285  -4.704  15.982  0.00  0.00    +0.255 HD
ATOM      9 HH12 ARG A   1      23.273  -3.824  14.780  0.00  0.00    +0.255 HD
ENDROOT
BRANCH   1  10
ATOM     10  CD  ARG A   1      23.618  -6.135  17.839  0.00  0.00    +0.174 C 
BRANCH  10  11
ATOM     11  CG  ARG A   1      23.452  -6.697  19.243  0.00  0.00    +0.045 C 
BRANCH  11  12
ATOM     12  CB  ARG A   1      24.811  -6.918  19.885  0.00  0.00    +0.029 C 
BRANCH  12  13
ATOM     13  CA  ARG A   1      24.755  -7.434  21.329  0.00  0.00    +0.133 C 
BRANCH  13  14
ATOM     14  N   ARG A   1      23.840  -8.565  21.449  0.00  0.00    -0.239 NA
ATOM     15  H   ARG A   1      22.837  -8.393  21.665  0.00  0.00    +0.142 HD
ENDBRANCH  13  14
BRANCH  13  16
ATOM     16  C   ARG A   1      24.394  -6.309  22.297  0.00  0.00    +0.224 C 
ATOM     17  O   ARG A   1      23.234  -6.160  22.687  0.00  0.00    -0.287 OA
ENDBRANCH  13  16
ENDBRANCH  12  13
ENDBRANCH  11  12
ENDBRANCH  10  11
ENDBRANCH   1  10
TORSDOF 6
REMARK  Name = ../refined-set-2016/4h75/4h75_pocket.pdb
REMARK  236 active torsions:
REMARK  status: ('A' for Active; 'I' for Inactive)
REMARK    1  A    between atoms: _1  and  _3
REMARK    2  A    between atoms: _3  and  _4
REMARK    3  A    between atoms: _3  and  _6
REMARK    4  A    between atoms: _6  and  _7
REMARK    5  A    between atoms: _17  and  _19
REMARK    6  A    between atoms: _19  and  _20
REMARK    7  A    between atoms: _19  and  _22
REMARK    8  A    between atoms: _22  and  _23
REMARK    9  A    between atoms: _23  and  _24
REMARK   10  A    between atoms: _24  and  _25
REMARK   11  A    between atoms: _25  and  _26
REMARK   12  A    between atoms: _30  and  _32
REMARK   13  A    between atoms: _32  and  _33
REMARK   14  A    between atoms: _32  and  _35
REMARK   15  A    between atoms: _35  and  _36
REMARK   16  A    between atoms: _41  and  _42
REMARK   17  A    between atoms: _44  and  _46
REMARK   18  A    between atoms: _46  and  _47
REMARK   19  A    between atoms: _46  and  _49
REMARK   20  A    between atoms: _49  and  _50
REMARK   21  A    between atoms: _53  and  _55
REMARK   22  A    between atoms: _55  and  _56
REMARK   23  A    between atoms: _58  and  _60
REMARK   24  A    between atoms: _60  and  _61
REMARK   25  A    between atoms: _60  and  _63
REMARK   26  A    between atoms: _63  and  _64
REMARK   27  A    between atoms: _70  and  _72
REMARK   28  A    between atoms: _72  and  _73
REMARK   29  A    between atoms: _72  and  _75
REMARK   30  A    between atoms: _75  and  _76
REMARK   31  A    between atoms: _79  and  _81
REMARK   32  A    between atoms: _81  and  _82
REMARK   33  A    between atoms: _81  and  _84
REMARK   34  A    between atoms: _86  and  _88
REMARK   35  A    between atoms: _88  and  _89
REMARK   36  A    between atoms: _88  and  _91
REMARK   37  A    between atoms: _94  and  _96
REMARK   38  A    between atoms: _96  and  _97
REMARK   39  A    between atoms: _96  and  _99
REMARK   40  A    between atoms: _99  and  _100
REMARK   41  A    between atoms: _105  and  _106
REMARK   42  A    between atoms: _108  and  _110
REMARK   43  A    between atoms: _110  and  _111
REMARK   44  A    between atoms: _110  and  _113
REMARK   45  A    between atoms: _113  and  _114
REMARK   46  A    between atoms: _119  and  _121
REMARK   47  A    between atoms: _121  and  _122
REMARK   48  A    between atoms: _121  and  _124
REMARK   49  A    between atoms: _124  and  _125
REMARK   50  A    between atoms: _125  and  _126
REMARK   51  A    between atoms: _128  and  _130
REMARK   52  A    between atoms: _130  and  _131
REMARK   53  A    between atoms: _130  and  _133
REMARK   54  A    between atoms: _133  and  _134
REMARK   55  A    between atoms: _140  and  _142
REMARK   56  A    between atoms: _142  and  _143
REMARK   57  A    between atoms: _142  and  _145
REMARK   58  A    between atoms: _145  and  _146
REMARK   59  A    between atoms: _146  and  _147
REMARK   60  A    between atoms: _150  and  _152
REMARK   61  A    between atoms: _152  and  _153
REMARK   62  A    between atoms: _152  and  _155
REMARK   63  A    between atoms: _155  and  _156
REMARK   64  A    between atoms: _159  and  _161
REMARK   65  A    between atoms: _161  and  _162
REMARK   66  A    between atoms: _161  and  _164
REMARK   67  A    between atoms: _164  and  _165
REMARK   68  A    between atoms: _165  and  _166
REMARK   69  A    between atoms: _169  and  _171
REMARK   70  A    between atoms: _171  and  _172
REMARK   71  A    between atoms: _171  and  _174
REMARK   72  A    between atoms: _174  and  _175
REMARK   73  A    between atoms: _178  and  _180
REMARK   74  A    between atoms: _180  and  _181
REMARK   75  A    between atoms: _183  and  _185
REMARK   76  A    between atoms: _185  and  _186
REMARK   77  A    between atoms: _185  and  _188
REMARK   78  A    between atoms: _188  and  _189
REMARK   79  A    between atoms: _191  and  _193
REMARK   80  A    between atoms: _193  and  _194
REMARK   81  A    between atoms: _193  and  _196
REMARK   82  A    between atoms: _196  and  _197
REMARK   83  A    between atoms: _197  and  _198
REMARK   84  A    between atoms: _198  and  _199
REMARK   85  A    between atoms: _199  and  _200
REMARK   86  A    between atoms: _204  and  _206
REMARK   87  A    between atoms: _206  and  _207
REMARK   88  A    between atoms: _206  and  _209
REMARK   89  A    between atoms: _209  and  _210
REMARK   90  A    between atoms: _213  and  _215
REMARK   91  A    between atoms: _215  and  _216
REMARK   92  A    between atoms: _215  and  _218
REMARK   93  A    between atoms: _218  and  _219
REMARK   94  A    between atoms: _219  and  _220
REMARK   95  A    between atoms: _223  and  _225
REMARK   96  A    between atoms: _225  and  _226
REMARK   97  A    between atoms: _225  and  _228
REMARK   98  A    between atoms: _228  and  _229
REMARK   99  A    between atoms: _239  and  _241
REMARK  100  A    between atoms: _241  and  _242
REMARK  101  A    between atoms: _241  and  _244
REMARK  102  A    between atoms: _244  and  _245
REMARK  103  A    between atoms: _245  and  _246
REMARK  104  A    between atoms: _246  and  _247
REMARK  105  A    between atoms: _256  and  _258
REMARK  106  A    between atoms: _258  and  _259
REMARK  107  A    between atoms: _258  and  _261
REMARK  108  A    between atoms: _261  and  _262
REMARK  109  A    between atoms: _265  and  _267
REMARK  110  A    between atoms: _267  and  _268
REMARK  111  A    between atoms: _267  and  _270
REMARK  112  A    between atoms: _270  and  _271
REMARK  113  A    between atoms: _281  and  _283
REMARK  114  A    between atoms: _283  and  _284
REMARK  115  A    between atoms: _283  and  _286
REMARK  116  A    between atoms: _286  and  _287
REMARK  117  A    between atoms: _293  and  _295
REMARK  118  A    between atoms: _295  and  _296
REMARK  119  A    between atoms: _295  and  _298
REMARK  120  A    between atoms: _298  and  _299
REMARK  121  A    between atoms: _302  and  _304
REMARK  122  A    between atoms: _304  and  _305
REMARK  123  A    between atoms: _304  and  _307
REMARK  124  A    between atoms: _307  and  _308
REMARK  125  A    between atoms: _311  and  _313
REMARK  126  A    between atoms: _313  and  _314
REMARK  127  A    between atoms: _313  and  _316
REMARK  128  A    between atoms: _316  and  _317
REMARK  129  A    between atoms: _322  and  _323
REMARK  130  A    between atoms: _325  and  _327
REMARK  131  A    between atoms: _327  and  _328
REMARK  132  A    between atoms: _327  and  _330
REMARK  133  A    between atoms: _330  and  _331
REMARK  134  A    between atoms: _331  and  _332
REMARK  135  A    between atoms: _335  and  _337
REMARK  136  A    between atoms: _337  and  _338
REMARK  137  A    between atoms: _337  and  _340
REMARK  138  A    between atoms: _340  and  _341
REMARK  139  A    between atoms: _341  and  _342
REMARK  140  A    between atoms: _342  and  _343
REMARK  141  A    between atoms: _343  and  _344
REMARK  142  A    between atoms: _348  and  _350
REMARK  143  A    between atoms: _350  and  _351
REMARK  144  A    between atoms: _350  and  _353
REMARK  145  A    between atoms: _353  and  _354
REMARK  146  A    between atoms: _358  and  _359
REMARK  147  A    between atoms: _364  and  _366
REMARK  148  A    between atoms: _366  and  _367
REMARK  149  A    between atoms: _366  and  _369
REMARK  150  A    between atoms: _372  and  _374
REMARK  151  A    between atoms: _374  and  _375
REMARK  152  A    between atoms: _374  and  _377
REMARK  153  A    between atoms: _377  and  _378
REMARK  154  A    between atoms: _381  and  _383
REMARK  155  A    between atoms: _383  and  _384
REMARK  156  A    between atoms: _383  and  _386
REMARK  157  A    between atoms: _386  and  _387
REMARK  158  A    between atoms: _392  and  _393
REMARK  159  A    between atoms: _395  and  _397
REMARK  160  A    between atoms: _397  and  _398
REMARK  161  A    between atoms: _397  and  _400
REMARK  162  A    between atoms: _400  and  _401
REMARK  163  A    between atoms: _401  and  _402
REMARK  164  A    between atoms: _404  and  _406
REMARK  165  A    between atoms: _406  and  _407
REMARK  166  A    between atoms: _406  and  _409
REMARK  167  A    between atoms: _409  and  _410
REMARK  168  A    between atoms: _415  and  _416
REMARK  169  A    between atoms: _418  and  _420
REMARK  170  A    between atoms: _420  and  _421
REMARK  171  A    between atoms: _420  and  _423
REMARK  172  A    between atoms: _423  and  _424
REMARK  173  A    between atoms: _424  and  _425
REMARK  174  A    between atoms: _430  and  _432
REMARK  175  A    between atoms: _432  and  _433
REMARK  176  A    between atoms: _432  and  _435
REMARK  177  A    between atoms: _435  and  _436
REMARK  178  A    between atoms: _439  and  _441
REMARK  179  A    between atoms: _441  and  _442
REMARK  180  A    between atoms: _441  and  _444
REMARK  181  A    between atoms: _444  and  _445
REMARK  182  A    between atoms: _448  and  _450
REMARK  183  A    between atoms: _450  and  _451
REMARK  184  A    between atoms: _450  and  _453
REMARK  185  A    between atoms: _453  and  _454
REMARK  186  A    between atoms: _457  and  _459
REMARK  187  A    between atoms: _459  and  _460
REMARK  188  A    between atoms: _459  and  _462
REMARK  189  A    between atoms: _462  and  _463
REMARK  190  A    between atoms: _466  and  _468
REMARK  191  A    between atoms: _468  and  _469
REMARK  192  A    between atoms: _468  and  _471
REMARK  193  A    between atoms: _471  and  _472
REMARK  194  A    between atoms: _477  and  _478
REMARK  195  A    between atoms: _480  and  _482
REMARK  196  A    between atoms: _482  and  _483
REMARK  197  A    between atoms: _482  and  _485
REMARK  198  A    between atoms: _485  and  _486
REMARK  199  A    between atoms: _486  and  _487
REMARK  200  A    between atoms: _490  and  _492
REMARK  201  A    between atoms: _492  and  _493
REMARK  202  A    between atoms: _495  and  _497
REMARK  203  A    between atoms: _497  and  _498
REMARK  204  A    between atoms: _497  and  _500
REMARK  205  A    between atoms: _500  and  _501
REMARK  206  A    between atoms: _504  and  _506
REMARK  207  A    between atoms: _506  and  _507
REMARK  208  A    between atoms: _506  and  _509
REMARK  209  A    between atoms: _509  and  _510
REMARK  210  A    between atoms: _513  and  _515
REMARK  211  A    between atoms: _515  and  _516
REMARK  212  A    between atoms: _515  and  _518
REMARK  213  A    between atoms: _518  and  _519
REMARK  214  A    between atoms: _519  and  _520
REMARK  215  A    between atoms: _520  and  _521
REMARK  216  A    between atoms: _530  and  _532
REMARK  217  A    between atoms: _532  and  _533
REMARK  218  A    between atoms: _532  and  _535
REMARK  219  A    between atoms: _535  and  _536
REMARK  220  A    between atoms: _539  and  _541
REMARK  221  A    between atoms: _541  and  _542
REMARK  222  A    between atoms: _541  and  _544
REMARK  223  A    between atoms: _544  and  _545
REMARK  224  A    between atoms: _551  and  _553
REMARK  225  A    between atoms: _553  and  _554
REMARK  226  A    between atoms: _553  and  _556
REMARK  227  A    between atoms: _556  and  _557
REMARK  228  A    between atoms: _562  and  _564
REMARK  229  A    between atoms: _564  and  _565
REMARK  230  A    between atoms: _564  and  _567
REMARK  231  A    between atoms: _567  and  _568
REMARK  232  A    between atoms: _571  and  _573
REMARK  233  A    between atoms: _573  and  _574
REMARK  234  A    between atoms: _573  and  _576
REMARK  235  A    between atoms: _576  and  _577
REMARK  236  A    between atoms: _582  and  _583
REMARK                            x       y       z     vdW  Elec       q    Type
REMARK                         _______ _______ _______ _____ _____    ______ ____
ROOT
ATOM      1  CA  HIS A   3      23.266   2.666  12.106  0.00  0.00    +0.155 C 
ENDROOT
BRANCH   1   4
ATOM      2  C   PHE A   2      25.669   2.948  12.131  0.00  0.00    +0.241 C 
ATOM      3  O   PHE A   2      25.556   4.165  12.168  0.00  0.00    -0.273 OA
ATOM      4  N   HIS A   3      24.624   2.128  12.118  0.00  0.00    -0.297 N 
ATOM      5  H   HIS A   3      24.773   1.099  12.116  0.00  0.00    +0.150 HD
BRANCH   2   6
ATOM      6  CA  PHE A   2      27.050   2.320  12.050  0.00  0.00    +0.153 C 
BRANCH   6   9
ATOM      7  C   ASP A   1      27.048   0.357  13.542  0.00  0.00    +0.239 C 
ATOM      8  O   ASP A   1      26.957   1.033  14.572  0.00  0.00    -0.274 OA
ATOM      9  N   PHE A   2      27.066   0.879  12.314  0.00  0.00    -0.297 N 
ATOM     10  H   PHE A   2      27.093   0.229  11.502  0.00  0.00    +0.150 HD
BRANCH   7  11
ATOM     11  CA  ASP A   1      27.167  -1.165  13.630  0.00  0.00    +0.156 C 
BRANCH  11  12
ATOM     12  N   ASP A   1      28.295  -1.450  14.504  0.00  0.00    -0.238 NA
ATOM     13  H   ASP A   1      28.499  -0.806  15.295  0.00  0.00    +0.142 HD
ENDBRANCH  11  12
BRANCH  11  14
ATOM     14  CB  ASP A   1      25.891  -1.808  14.194  0.00  0.00    +0.140 C 
BRANCH  14  15
ATOM     15  CG  ASP A   1      24.695  -1.695  13.252  0.00  0.00    +0.367 C 
ATOM     16  OD2 ASP A   1      23.807  -2.573  13.317  0.00  0.00    -0.246 OA
ATOM     17  OD1 ASP A   1      24.627  -0.737  12.452  0.00  0.00    -0.246 OA
ENDBRANCH  14  15
ENDBRANCH  11  14
ENDBRANCH   7  11
ENDBRANCH   6   9
BRANCH   6  18
ATOM     18  CB  PHE A   2      27.613   2.626  10.652  0.00  0.00    +0.055 C 
BRANCH  18  19
ATOM     19  CG  PHE A   2      29.004   2.181  10.470  0.00  0.00    -0.020 A 
ATOM     20  CD2 PHE A   2      30.034   2.831  11.125  0.00  0.00    -0.004 A 
ATOM     21  CE2 PHE A   2      31.327   2.405  10.983  0.00  0.00    -0.000 A 
ATOM     22  CZ  PHE A   2      31.598   1.308  10.193  0.00  0.00    -0.000 A 
ATOM     23  CE1 PHE A   2      30.578   0.649   9.535  0.00  0.00    -0.000 A 
ATOM     24  CD1 PHE A   2      29.290   1.078   9.684  0.00  0.00    -0.004 A 
ENDBRANCH  18  19
ENDBRANCH   6  18
ENDBRANCH   2   6
ENDBRANCH   1   4
BRANCH   1  25
ATOM     25  C   HIS A   3      22.863   3.210  13.468  0.00  0.00    +0.241 C 
ATOM     26  O   HIS A   3      23.406   2.810  14.501  0.00  0.00    -0.273 OA
ATOM     27  N   ILE A   4      21.923   4.145  13.470  0.00  0.00    -0.297 N 
ATOM     28  H   ILE A   4      21.585   4.542  12.570  0.00  0.00    +0.150 HD
BRANCH  27  29
ATOM     29  CA  ILE A   4      21.365   4.616  14.723  0.00  0.00    +0.149 C 
BRANCH  29  30
ATOM     30  C   ILE A   4      19.993   3.973  14.862  0.00  0.00    +0.241 C 
ATOM     31  N   TYR A   5      19.831   3.145  15.889  0.00  0.00    -0.298 N 
ATOM     32  H   TYR A   5      20.619   3.002  16.552  0.00  0.00    +0.150 HD
ATOM     33  O   ILE A   4      19.109   4.210  14.043  0.00  0.00    -0.273 OA
BRANCH  31  34
ATOM     34  CA  TYR A   5      18.583   2.433  16.111  0.00  0.00    +0.141 C 
BRANCH  34  35
ATOM     35  C   TYR A   5      17.634   3.300  16.919  0.00  0.00    +0.227 C 
ATOM     36  O   TYR A   5      18.049   4.031  17.814  0.00  0.00    -0.286 OA
ENDBRANCH  34  35
BRANCH  34  37
ATOM     37  CB  TYR A   5      18.840   1.061  16.771  0.00  0.00    +0.054 C 
BRANCH  37  38
ATOM     38  CG  TYR A   5      19.519   0.139  15.786  0.00  0.00    -0.020 A 
ATOM     39  CD2 TYR A   5      20.894   0.201  15.583  0.00  0.00    -0.001 A 
ATOM     40  CE2 TYR A   5      21.521  -0.609  14.635  0.00  0.00    +0.036 A 
ATOM     41  CZ  TYR A   5      20.765  -1.467  13.870  0.00  0.00    +0.134 A 
ATOM     42  CE1 TYR A   5      19.394  -1.532  14.044  0.00  0.00    +0.036 A 
ATOM     43  CD1 TYR A   5      18.779  -0.722  14.990  0.00  0.00    -0.001 A 
BRANCH  41  44
ATOM     44  OH  TYR A   5      21.377  -2.270  12.934  0.00  0.00    -0.506 OA
ATOM     45  HH  TYR A   5      22.352  -2.098  12.940  0.00  0.00    +0.292 HD
ENDBRANCH  41  44
ENDBRANCH  37  38
ENDBRANCH  34  37
ENDBRANCH  31  34
ENDBRANCH  29  30
BRANCH  29  46
ATOM     46  CB  ILE A   4      21.247   6.147  14.753  0.00  0.00    +0.027 C 
ATOM     47  CG2 ILE A   4      20.759   6.624  16.127  0.00  0.00    +0.002 C 
BRANCH  46  48
ATOM     48  CG1 ILE A   4      22.594   6.793  14.384  0.00  0.00    +0.002 C 
ATOM     49  CD1 ILE A   4      23.774   6.346  15.247  0.00  0.00    +0.000 C 
ENDBRANCH  46  48
ENDBRANCH  29  46
ENDBRANCH  27  29
ENDBRANCH   1  25
BRANCH   1  50
ATOM     50  CB  HIS A   3      22.276   1.599  11.625  0.00  0.00    +0.076 C 
BRANCH  50  51
ATOM     51  CG  HIS A   3      22.571   1.105  10.247  0.00  0.00    +0.082 A 
ATOM     52  ND1 HIS A   3      23.346  -0.008  10.005  0.00  0.00    -0.227 NA
ATOM     53  CE1 HIS A   3      23.447  -0.198   8.702  0.00  0.00    +0.199 A 
ATOM     54  NE2 HIS A   3      22.780   0.764   8.090  0.00  0.00    -0.221 NA
ATOM     55  CD2 HIS A   3      22.225   1.594   9.033  0.00  0.00    +0.115 A 
ENDBRANCH  50  51
ENDBRANCH   1  50
TORSDOF 21
REMARK  Name = ../refined-set-2016/4h75/4h75_pocket.pdb
REMARK  236 active torsions:
REMARK  status: ('A' for Active; 'I' for Inactive)
REMARK    1  A    between atoms: _1  and  _3
REMARK    2  A    between atoms: _3  and  _4
REMARK    3  A    between atoms: _3  and  _6
REMARK    4  A    between atoms: _6  and  _7
REMARK    5  A    between atoms: _17  and  _19
REMARK    6  A    between atoms: _19  and  _20
REMARK    7  A    between atoms: _19  and  _22
REMARK    8  A    between atoms: _22  and  _23
REMARK    9  A    between atoms: _23  and  _24
REMARK   10  A    between atoms: _24  and  _25
REMARK   11  A    between atoms: _25  and  _26
REMARK   12  A    between atoms: _30  and  _32
REMARK   13  A    between atoms: _32  and  _33
REMARK   14  A    between atoms: _32  and  _35
REMARK   15  A    between atoms: _35  and  _36
REMARK   16  A    between atoms: _41  and  _42
REMARK   17  A    between atoms: _44  and  _46
REMARK   18  A    between atoms: _46  and  _47
REMARK   19  A    between atoms: _46  and  _49
REMARK   20  A    between atoms: _49  and  _50
REMARK   21  A    between atoms: _53  and  _55
REMARK   22  A    between atoms: _55  and  _56
REMARK   23  A    between atoms: _58  and  _60
REMARK   24  A    between atoms: _60  and  _61
REMARK   25  A    between atoms: _60  and  _63
REMARK   26  A    between atoms: _63  and  _64
REMARK   27  A    between atoms: _70  and  _72
REMARK   28  A    between atoms: _72  and  _73
REMARK   29  A    between atoms: _72  and  _75
REMARK   30  A    between atoms: _75  and  _76
REMARK   31  A    between atoms: _79  and  _81
REMARK   32  A    between atoms: _81  and  _82
REMARK   33  A    between atoms: _81  and  _84
REMARK   34  A    between atoms: _86  and  _88
REMARK   35  A    between atoms: _88  and  _89
REMARK   36  A    between atoms: _88  and  _91
REMARK   37  A    between atoms: _94  and  _96
REMARK   38  A    between atoms: _96  and  _97
REMARK   39  A    between atoms: _96  and  _99
REMARK   40  A    between atoms: _99  and  _100
REMARK   41  A    between atoms: _105  and  _106
REMARK   42  A    between atoms: _108  and  _110
REMARK   43  A    between atoms: _110  and  _111
REMARK   44  A    between atoms: _110  and  _113
REMARK   45  A    between atoms: _113  and  _114
REMARK   46  A    between atoms: _119  and  _121
REMARK   47  A    between atoms: _121  and  _122
REMARK   48  A    between atoms: _121  and  _124
REMARK   49  A    between atoms: _124  and  _125
REMARK   50  A    between atoms: _125  and  _126
REMARK   51  A    between atoms: _128  and  _130
REMARK   52  A    between atoms: _130  and  _131
REMARK   53  A    between atoms: _130  and  _133
REMARK   54  A    between atoms: _133  and  _134
REMARK   55  A    between atoms: _140  and  _142
REMARK   56  A    between atoms: _142  and  _143
REMARK   57  A    between atoms: _142  and  _145
REMARK   58  A    between atoms: _145  and  _146
REMARK   59  A    between atoms: _146  and  _147
REMARK   60  A    between atoms: _150  and  _152
REMARK   61  A    between atoms: _152  and  _153
REMARK   62  A    between atoms: _152  and  _155
REMARK   63  A    between atoms: _155  and  _156
REMARK   64  A    between atoms: _159  and  _161
REMARK   65  A    between atoms: _161  and  _162
REMARK   66  A    between atoms: _161  and  _164
REMARK   67  A    between atoms: _164  and  _165
REMARK   68  A    between atoms: _165  and  _166
REMARK   69  A    between atoms: _169  and  _171
REMARK   70  A    between atoms: _171  and  _172
REMARK   71  A    between atoms: _171  and  _174
REMARK   72  A    between atoms: _174  and  _175
REMARK   73  A    between atoms: _178  and  _180
REMARK   74  A    between atoms: _180  and  _181
REMARK   75  A    between atoms: _183  and  _185
REMARK   76  A    between atoms: _185  and  _186
REMARK   77  A    between atoms: _185  and  _188
REMARK   78  A    between atoms: _188  and  _189
REMARK   79  A    between atoms: _191  and  _193
REMARK   80  A    between atoms: _193  and  _194
REMARK   81  A    between atoms: _193  and  _196
REMARK   82  A    between atoms: _196  and  _197
REMARK   83  A    between atoms: _197  and  _198
REMARK   84  A    between atoms: _198  and  _199
REMARK   85  A    between atoms: _199  and  _200
REMARK   86  A    between atoms: _204  and  _206
REMARK   87  A    between atoms: _206  and  _207
REMARK   88  A    between atoms: _206  and  _209
REMARK   89  A    between atoms: _209  and  _210
REMARK   90  A    between atoms: _213  and  _215
REMARK   91  A    between atoms: _215  and  _216
REMARK   92  A    between atoms: _215  and  _218
REMARK   93  A    between atoms: _218  and  _219
REMARK   94  A    between atoms: _219  and  _220
REMARK   95  A    between atoms: _223  and  _225
REMARK   96  A    between atoms: _225  and  _226
REMARK   97  A    between atoms: _225  and  _228
REMARK   98  A    between atoms: _228  and  _229
REMARK   99  A    between atoms: _239  and  _241
REMARK  100  A    between atoms: _241  and  _242
REMARK  101  A    between atoms: _241  and  _244
REMARK  102  A    between atoms: _244  and  _245
REMARK  103  A    between atoms: _245  and  _246
REMARK  104  A    between atoms: _246  and  _247
REMARK  105  A    between atoms: _256  and  _258
REMARK  106  A    between atoms: _258  and  _259
REMARK  107  A    between atoms: _258  and  _261
REMARK  108  A    between atoms: _261  and  _262
REMARK  109  A    between atoms: _265  and  _267
REMARK  110  A    between atoms: _267  and  _268
REMARK  111  A    between atoms: _267  and  _270
REMARK  112  A    between atoms: _270  and  _271
REMARK  113  A    between atoms: _281  and  _283
REMARK  114  A    between atoms: _283  and  _284
REMARK  115  A    between atoms: _283  and  _286
REMARK  116  A    between atoms: _286  and  _287
REMARK  117  A    between atoms: _293  and  _295
REMARK  118  A    between atoms: _295  and  _296
REMARK  119  A    between atoms: _295  and  _298
REMARK  120  A    between atoms: _298  and  _299
REMARK  121  A    between atoms: _302  and  _304
REMARK  122  A    between atoms: _304  and  _305
REMARK  123  A    between atoms: _304  and  _307
REMARK  124  A    between atoms: _307  and  _308
REMARK  125  A    between atoms: _311  and  _313
REMARK  126  A    between atoms: _313  and  _314
REMARK  127  A    between atoms: _313  and  _316
REMARK  128  A    between atoms: _316  and  _317
REMARK  129  A    between atoms: _322  and  _323
REMARK  130  A    between atoms: _325  and  _327
REMARK  131  A    between atoms: _327  and  _328
REMARK  132  A    between atoms: _327  and  _330
REMARK  133  A    between atoms: _330  and  _331
REMARK  134  A    between atoms: _331  and  _332
REMARK  135  A    between atoms: _335  and  _337
REMARK  136  A    between atoms: _337  and  _338
REMARK  137  A    between atoms: _337  and  _340
REMARK  138  A    between atoms: _340  and  _341
REMARK  139  A    between atoms: _341  and  _342
REMARK  140  A    between atoms: _342  and  _343
REMARK  141  A    between atoms: _343  and  _344
REMARK  142  A    between atoms: _348  and  _350
REMARK  143  A    between atoms: _350  and  _351
REMARK  144  A    between atoms: _350  and  _353
REMARK  145  A    between atoms: _353  and  _354
REMARK  146  A    between atoms: _358  and  _359
REMARK  147  A    between atoms: _364  and  _366
REMARK  148  A    between atoms: _366  and  _367
REMARK  149  A    between atoms: _366  and  _369
REMARK  150  A    between atoms: _372  and  _374
REMARK  151  A    between atoms: _374  and  _375
REMARK  152  A    between atoms: _374  and  _377
REMARK  153  A    between atoms: _377  and  _378
REMARK  154  A    between atoms: _381  and  _383
REMARK  155  A    between atoms: _383  and  _384
REMARK  156  A    between atoms: _383  and  _386
REMARK  157  A    between atoms: _386  and  _387
REMARK  158  A    between atoms: _392  and  _393
REMARK  159  A    between atoms: _395  and  _397
REMARK  160  A    between atoms: _397  and  _398
REMARK  161  A    between atoms: _397  and  _400
REMARK  162  A    between atoms: _400  and  _401
REMARK  163  A    between atoms: _401  and  _402
REMARK  164  A    between atoms: _404  and  _406
REMARK  165  A    between atoms: _406  and  _407
REMARK  166  A    between atoms: _406  and  _409
REMARK  167  A    between atoms: _409  and  _410
REMARK  168  A    between atoms: _415  and  _416
REMARK  169  A    between atoms: _418  and  _420
REMARK  170  A    between atoms: _420  and  _421
REMARK  171  A    between atoms: _420  and  _423
REMARK  172  A    between atoms: _423  and  _424
REMARK  173  A    between atoms: _424  and  _425
REMARK  174  A    between atoms: _430  and  _432
REMARK  175  A    between atoms: _432  and  _433
REMARK  176  A    between atoms: _432  and  _435
REMARK  177  A    between atoms: _435  and  _436
REMARK  178  A    between atoms: _439  and  _441
REMARK  179  A    between atoms: _441  and  _442
REMARK  180  A    between atoms: _441  and  _444
REMARK  181  A    between atoms: _444  and  _445
REMARK  182  A    between atoms: _448  and  _450
REMARK  183  A    between atoms: _450  and  _451
REMARK  184  A    between atoms: _450  and  _453
REMARK  185  A    between atoms: _453  and  _454
REMARK  186  A    between atoms: _457  and  _459
REMARK  187  A    between atoms: _459  and  _460
REMARK  188  A    between atoms: _459  and  _462
REMARK  189  A    between atoms: _462  and  _463
REMARK  190  A    between atoms: _466  and  _468
REMARK  191  A    between atoms: _468  and  _469
REMARK  192  A    between atoms: _468  and  _471
REMARK  193  A    between atoms: _471  and  _472
REMARK  194  A    between atoms: _477  and  _478
REMARK  195  A    between atoms: _480  and  _482
REMARK  196  A    between atoms: _482  and  _483
REMARK  197  A    between atoms: _482  and  _485
REMARK  198  A    between atoms: _485  and  _486
REMARK  199  A    between atoms: _486  and  _487
REMARK  200  A    between atoms: _490  and  _492
REMARK  201  A    between atoms: _492  and  _493
REMARK  202  A    between atoms: _495  and  _497
REMARK  203  A    between atoms: _497  and  _498
REMARK  204  A    between atoms: _497  and  _500
REMARK  205  A    between atoms: _500  and  _501
REMARK  206  A    between atoms: _504  and  _506
REMARK  207  A    between atoms: _506  and  _507
REMARK  208  A    between atoms: _506  and  _509
REMARK  209  A    between atoms: _509  and  _510
REMARK  210  A    between atoms: _513  and  _515
REMARK  211  A    between atoms: _515  and  _516
REMARK  212  A    between atoms: _515  and  _518
REMARK  213  A    between atoms: _518  and  _519
REMARK  214  A    between atoms: _519  and  _520
REMARK  215  A    between atoms: _520  and  _521
REMARK  216  A    between atoms: _530  and  _532
REMARK  217  A    between atoms: _532  and  _533
REMARK  218  A    between atoms: _532  and  _535
REMARK  219  A    between atoms: _535  and  _536
REMARK  220  A    between atoms: _539  and  _541
REMARK  221  A    between atoms: _541  and  _542
REMARK  222  A    between atoms: _541  and  _544
REMARK  223  A    between atoms: _544  and  _545
REMARK  224  A    between atoms: _551  and  _553
REMARK  225  A    between atoms: _553  and  _554
REMARK  226  A    between atoms: _553  and  _556
REMARK  227  A    between atoms: _556  and  _557
REMARK  228  A    between atoms: _562  and  _564
REMARK  229  A    between atoms: _564  and  _565
REMARK  230  A    between atoms: _564  and  _567
REMARK  231  A    between atoms: _567  and  _568
REMARK  232  A    between atoms: _571  and  _573
REMARK  233  A    between atoms: _573  and  _574
REMARK  234  A    between atoms: _573  and  _576
REMARK  235  A    between atoms: _576  and  _577
REMARK  236  A    between atoms: _582  and  _583
REMARK                            x       y       z     vdW  Elec       q    Type
REMARK                         _______ _______ _______ _____ _____    ______ ____
ROOT
ATOM      1  O   HOH     1      23.934   9.291   5.407  0.00  0.00    +0.000 OA
ENDROOT
TORSDOF 0
REMARK  Name = ../refined-set-2016/4h75/4h75_pocket.pdb
REMARK  236 active torsions:
REMARK  status: ('A' for Active; 'I' for Inactive)
REMARK    1  A    between atoms: _1  and  _3
REMARK    2  A    between atoms: _3  and  _4
REMARK    3  A    between atoms: _3  and  _6
REMARK    4  A    between atoms: _6  and  _7
REMARK    5  A    between atoms: _17  and  _19
REMARK    6  A    between atoms: _19  and  _20
REMARK    7  A    between atoms: _19  and  _22
REMARK    8  A    between atoms: _22  and  _23
REMARK    9  A    between atoms: _23  and  _24
REMARK   10  A    between atoms: _24  and  _25
REMARK   11  A    between atoms: _25  and  _26
REMARK   12  A    between atoms: _30  and  _32
REMARK   13  A    between atoms: _32  and  _33
REMARK   14  A    between atoms: _32  and  _35
REMARK   15  A    between atoms: _35  and  _36
REMARK   16  A    between atoms: _41  and  _42
REMARK   17  A    between atoms: _44  and  _46
REMARK   18  A    between atoms: _46  and  _47
REMARK   19  A    between atoms: _46  and  _49
REMARK   20  A    between atoms: _49  and  _50
REMARK   21  A    between atoms: _53  and  _55
REMARK   22  A    between atoms: _55  and  _56
REMARK   23  A    between atoms: _58  and  _60
REMARK   24  A    between atoms: _60  and  _61
REMARK   25  A    between atoms: _60  and  _63
REMARK   26  A    between atoms: _63  and  _64
REMARK   27  A    between atoms: _70  and  _72
REMARK   28  A    between atoms: _72  and  _73
REMARK   29  A    between atoms: _72  and  _75
REMARK   30  A    between atoms: _75  and  _76
REMARK   31  A    between atoms: _79  and  _81
REMARK   32  A    between atoms: _81  and  _82
REMARK   33  A    between atoms: _81  and  _84
REMARK   34  A    between atoms: _86  and  _88
REMARK   35  A    between atoms: _88  and  _89
REMARK   36  A    between atoms: _88  and  _91
REMARK   37  A    between atoms: _94  and  _96
REMARK   38  A    between atoms: _96  and  _97
REMARK   39  A    between atoms: _96  and  _99
REMARK   40  A    between atoms: _99  and  _100
REMARK   41  A    between atoms: _105  and  _106
REMARK   42  A    between atoms: _108  and  _110
REMARK   43  A    between atoms: _110  and  _111
REMARK   44  A    between atoms: _110  and  _113
REMARK   45  A    between atoms: _113  and  _114
REMARK   46  A    between atoms: _119  and  _121
REMARK   47  A    between atoms: _121  and  _122
REMARK   48  A    between atoms: _121  and  _124
REMARK   49  A    between atoms: _124  and  _125
REMARK   50  A    between atoms: _125  and  _126
REMARK   51  A    between atoms: _128  and  _130
REMARK   52  A    between atoms: _130  and  _131
REMARK   53  A    between atoms: _130  and  _133
REMARK   54  A    between atoms: _133  and  _134
REMARK   55  A    between atoms: _140  and  _142
REMARK   56  A    between atoms: _142  and  _143
REMARK   57  A    between atoms: _142  and  _145
REMARK   58  A    between atoms: _145  and  _146
REMARK   59  A    between atoms: _146  and  _147
REMARK   60  A    between atoms: _150  and  _152
REMARK   61  A    between atoms: _152  and  _153
REMARK   62  A    between atoms: _152  and  _155
REMARK   63  A    between atoms: _155  and  _156
REMARK   64  A    between atoms: _159  and  _161
REMARK   65  A    between atoms: _161  and  _162
REMARK   66  A    between atoms: _161  and  _164
REMARK   67  A    between atoms: _164  and  _165
REMARK   68  A    between atoms: _165  and  _166
REMARK   69  A    between atoms: _169  and  _171
REMARK   70  A    between atoms: _171  and  _172
REMARK   71  A    between atoms: _171  and  _174
REMARK   72  A    between atoms: _174  and  _175
REMARK   73  A    between atoms: _178  and  _180
REMARK   74  A    between atoms: _180  and  _181
REMARK   75  A    between atoms: _183  and  _185
REMARK   76  A    between atoms: _185  and  _186
REMARK   77  A    between atoms: _185  and  _188
REMARK   78  A    between atoms: _188  and  _189
REMARK   79  A    between atoms: _191  and  _193
REMARK   80  A    between atoms: _193  and  _194
REMARK   81  A    between atoms: _193  and  _196
REMARK   82  A    between atoms: _196  and  _197
REMARK   83  A    between atoms: _197  and  _198
REMARK   84  A    between atoms: _198  and  _199
REMARK   85  A    between atoms: _199  and  _200
REMARK   86  A    between atoms: _204  and  _206
REMARK   87  A    between atoms: _206  and  _207
REMARK   88  A    between atoms: _206  and  _209
REMARK   89  A    between atoms: _209  and  _210
REMARK   90  A    between atoms: _213  and  _215
REMARK   91  A    between atoms: _215  and  _216
REMARK   92  A    between atoms: _215  and  _218
REMARK   93  A    between atoms: _218  and  _219
REMARK   94  A    between atoms: _219  and  _220
REMARK   95  A    between atoms: _223  and  _225
REMARK   96  A    between atoms: _225  and  _226
REMARK   97  A    between atoms: _225  and  _228
REMARK   98  A    between atoms: _228  and  _229
REMARK   99  A    between atoms: _239  and  _241
REMARK  100  A    between atoms: _241  and  _242
REMARK  101  A    between atoms: _241  and  _244
REMARK  102  A    between atoms: _244  and  _245
REMARK  103  A    between atoms: _245  and  _246
REMARK  104  A    between atoms: _246  and  _247
REMARK  105  A    between atoms: _256  and  _258
REMARK  106  A    between atoms: _258  and  _259
REMARK  107  A    between atoms: _258  and  _261
REMARK  108  A    between atoms: _261  and  _262
REMARK  109  A    between atoms: _265  and  _267
REMARK  110  A    between atoms: _267  and  _268
REMARK  111  A    between atoms: _267  and  _270
REMARK  112  A    between atoms: _270  and  _271
REMARK  113  A    between atoms: _281  and  _283
REMARK  114  A    between atoms: _283  and  _284
REMARK  115  A    between atoms: _283  and  _286
REMARK  116  A    between atoms: _286  and  _287
REMARK  117  A    between atoms: _293  and  _295
REMARK  118  A    between atoms: _295  and  _296
REMARK  119  A    between atoms: _295  and  _298
REMARK  120  A    between atoms: _298  and  _299
REMARK  121  A    between atoms: _302  and  _304
REMARK  122  A    between atoms: _304  and  _305
REMARK  123  A    between atoms: _304  and  _307
REMARK  124  A    between atoms: _307  and  _308
REMARK  125  A    between atoms: _311  and  _313
REMARK  126  A    between atoms: _313  and  _314
REMARK  127  A    between atoms: _313  and  _316
REMARK  128  A    between atoms: _316  and  _317
REMARK  129  A    between atoms: _322  and  _323
REMARK  130  A    between atoms: _325  and  _327
REMARK  131  A    between atoms: _327  and  _328
REMARK  132  A    between atoms: _327  and  _330
REMARK  133  A    between atoms: _330  and  _331
REMARK  134  A    between atoms: _331  and  _332
REMARK  135  A    between atoms: _335  and  _337
REMARK  136  A    between atoms: _337  and  _338
REMARK  137  A    between atoms: _337  and  _340
REMARK  138  A    between atoms: _340  and  _341
REMARK  139  A    between atoms: _341  and  _342
REMARK  140  A    between atoms: _342  and  _343
REMARK  141  A    between atoms: _343  and  _344
REMARK  142  A    between atoms: _348  and  _350
REMARK  143  A    between atoms: _350  and  _351
REMARK  144  A    between atoms: _350  and  _353
REMARK  145  A    between atoms: _353  and  _354
REMARK  146  A    between atoms: _358  and  _359
REMARK  147  A    between atoms: _364  and  _366
REMARK  148  A    between atoms: _366  and  _367
REMARK  149  A    between atoms: _366  and  _369
REMARK  150  A    between atoms: _372  and  _374
REMARK  151  A    between atoms: _374  and  _375
REMARK  152  A    between atoms: _374  and  _377
REMARK  153  A    between atoms: _377  and  _378
REMARK  154  A    between atoms: _381  and  _383
REMARK  155  A    between atoms: _383  and  _384
REMARK  156  A    between atoms: _383  and  _386
REMARK  157  A    between atoms: _386  and  _387
REMARK  158  A    between atoms: _392  and  _393
REMARK  159  A    between atoms: _395  and  _397
REMARK  160  A    between atoms: _397  and  _398
REMARK  161  A    between atoms: _397  and  _400
REMARK  162  A    between atoms: _400  and  _401
REMARK  163  A    between atoms: _401  and  _402
REMARK  164  A    between atoms: _404  and  _406
REMARK  165  A    between atoms: _406  and  _407
REMARK  166  A    between atoms: _406  and  _409
REMARK  167  A    between atoms: _409  and  _410
REMARK  168  A    between atoms: _415  and  _416
REMARK  169  A    between atoms: _418  and  _420
REMARK  170  A    between atoms: _420  and  _421
REMARK  171  A    between atoms: _420  and  _423
REMARK  172  A    between atoms: _423  and  _424
REMARK  173  A    between atoms: _424  and  _425
REMARK  174  A    between atoms: _430  and  _432
REMARK  175  A    between atoms: _432  and  _433
REMARK  176  A    between atoms: _432  and  _435
REMARK  177  A    between atoms: _435  and  _436
REMARK  178  A    between atoms: _439  and  _441
REMARK  179  A    between atoms: _441  and  _442
REMARK  180  A    between atoms: _441  and  _444
REMARK  181  A    between atoms: _444  and  _445
REMARK  182  A    between atoms: _448  and  _450
REMARK  183  A    between atoms: _450  and  _451
REMARK  184  A    between atoms: _450  and  _453
REMARK  185  A    between atoms: _453  and  _454
REMARK  186  A    between atoms: _457  and  _459
REMARK  187  A    between atoms: _459  and  _460
REMARK  188  A    between atoms: _459  and  _462
REMARK  189  A    between atoms: _462  and  _463
REMARK  190  A    between atoms: _466  and  _468
REMARK  191  A    between atoms: _468  and  _469
REMARK  192  A    between atoms: _468  and  _471
REMARK  193  A    between atoms: _471  and  _472
REMARK  194  A    between atoms: _477  and  _478
REMARK  195  A    between atoms: _480  and  _482
REMARK  196  A    between atoms: _482  and  _483
REMARK  197  A    between atoms: _482  and  _485
REMARK  198  A    between atoms: _485  and  _486
REMARK  199  A    between atoms: _486  and  _487
REMARK  200  A    between atoms: _490  and  _492
REMARK  201  A    between atoms: _492  and  _493
REMARK  202  A    between atoms: _495  and  _497
REMARK  203  A    between atoms: _497  and  _498
REMARK  204  A    between atoms: _497  and  _500
REMARK  205  A    between atoms: _500  and  _501
REMARK  206  A    between atoms: _504  and  _506
REMARK  207  A    between atoms: _506  and  _507
REMARK  208  A    between atoms: _506  and  _509
REMARK  209  A    between atoms: _509  and  _510
REMARK  210  A    between atoms: _513  and  _515
REMARK  211  A    between atoms: _515  and  _516
REMARK  212  A    between atoms: _515  and  _518
REMARK  213  A    between atoms: _518  and  _519
REMARK  214  A    between atoms: _519  and  _520
REMARK  215  A    between atoms: _520  and  _521
REMARK  216  A    between atoms: _530  and  _532
REMARK  217  A    between atoms: _532  and  _533
REMARK  218  A    between atoms: _532  and  _535
REMARK  219  A    between atoms: _535  and  _536
REMARK  220  A    between atoms: _539  and  _541
REMARK  221  A    between atoms: _541  and  _542
REMARK  222  A    between atoms: _541  and  _544
REMARK  223  A    between atoms: _544  and  _545
REMARK  224  A    between atoms: _551  and  _553
REMARK  225  A    between atoms: _553  and  _554
REMARK  226  A    between atoms: _553  and  _556
REMARK  227  A    between atoms: _556  and  _557
REMARK  228  A    between atoms: _562  and  _564
REMARK  229  A    between atoms: _564  and  _565
REMARK  230  A    between atoms: _564  and  _567
REMARK  231  A    between atoms: _567  and  _568
REMARK  232  A    between atoms: _571  and  _573
REMARK  233  A    between atoms: _573  and  _574
REMARK  234  A    between atoms: _573  and  _576
REMARK  235  A    between atoms: _576  and  _577
REMARK  236  A    between atoms: _582  and  _583
REMARK                            x       y       z     vdW  Elec       q    Type
REMARK                         _______ _______ _______ _____ _____    ______ ____
ROOT
ATOM      1  O   HOH     1      22.014   4.984   3.826  0.00  0.00    +0.000 OA
ENDROOT
TORSDOF 0
REMARK  Name = ../refined-set-2016/4h75/4h75_pocket.pdb
REMARK  236 active torsions:
REMARK  status: ('A' for Active; 'I' for Inactive)
REMARK    1  A    between atoms: _1  and  _3
REMARK    2  A    between atoms: _3  and  _4
REMARK    3  A    between atoms: _3  and  _6
REMARK    4  A    between atoms: _6  and  _7
REMARK    5  A    between atoms: _17  and  _19
REMARK    6  A    between atoms: _19  and  _20
REMARK    7  A    between atoms: _19  and  _22
REMARK    8  A    between atoms: _22  and  _23
REMARK    9  A    between atoms: _23  and  _24
REMARK   10  A    between atoms: _24  and  _25
REMARK   11  A    between atoms: _25  and  _26
REMARK   12  A    between atoms: _30  and  _32
REMARK   13  A    between atoms: _32  and  _33
REMARK   14  A    between atoms: _32  and  _35
REMARK   15  A    between atoms: _35  and  _36
REMARK   16  A    between atoms: _41  and  _42
REMARK   17  A    between atoms: _44  and  _46
REMARK   18  A    between atoms: _46  and  _47
REMARK   19  A    between atoms: _46  and  _49
REMARK   20  A    between atoms: _49  and  _50
REMARK   21  A    between atoms: _53  and  _55
REMARK   22  A    between atoms: _55  and  _56
REMARK   23  A    between atoms: _58  and  _60
REMARK   24  A    between atoms: _60  and  _61
REMARK   25  A    between atoms: _60  and  _63
REMARK   26  A    between atoms: _63  and  _64
REMARK   27  A    between atoms: _70  and  _72
REMARK   28  A    between atoms: _72  and  _73
REMARK   29  A    between atoms: _72  and  _75
REMARK   30  A    between atoms: _75  and  _76
REMARK   31  A    between atoms: _79  and  _81
REMARK   32  A    between atoms: _81  and  _82
REMARK   33  A    between atoms: _81  and  _84
REMARK   34  A    between atoms: _86  and  _88
REMARK   35  A    between atoms: _88  and  _89
REMARK   36  A    between atoms: _88  and  _91
REMARK   37  A    between atoms: _94  and  _96
REMARK   38  A    between atoms: _96  and  _97
REMARK   39  A    between atoms: _96  and  _99
REMARK   40  A    between atoms: _99  and  _100
REMARK   41  A    between atoms: _105  and  _106
REMARK   42  A    between atoms: _108  and  _110
REMARK   43  A    between atoms: _110  and  _111
REMARK   44  A    between atoms: _110  and  _113
REMARK   45  A    between atoms: _113  and  _114
REMARK   46  A    between atoms: _119  and  _121
REMARK   47  A    between atoms: _121  and  _122
REMARK   48  A    between atoms: _121  and  _124
REMARK   49  A    between atoms: _124  and  _125
REMARK   50  A    between atoms: _125  and  _126
REMARK   51  A    between atoms: _128  and  _130
REMARK   52  A    between atoms: _130  and  _131
REMARK   53  A    between atoms: _130  and  _133
REMARK   54  A    between atoms: _133  and  _134
REMARK   55  A    between atoms: _140  and  _142
REMARK   56  A    between atoms: _142  and  _143
REMARK   57  A    between atoms: _142  and  _145
REMARK   58  A    between atoms: _145  and  _146
REMARK   59  A    between atoms: _146  and  _147
REMARK   60  A    between atoms: _150  and  _152
REMARK   61  A    between atoms: _152  and  _153
REMARK   62  A    between atoms: _152  and  _155
REMARK   63  A    between atoms: _155  and  _156
REMARK   64  A    between atoms: _159  and  _161
REMARK   65  A    between atoms: _161  and  _162
REMARK   66  A    between atoms: _161  and  _164
REMARK   67  A    between atoms: _164  and  _165
REMARK   68  A    between atoms: _165  and  _166
REMARK   69  A    between atoms: _169  and  _171
REMARK   70  A    between atoms: _171  and  _172
REMARK   71  A    between atoms: _171  and  _174
REMARK   72  A    between atoms: _174  and  _175
REMARK   73  A    between atoms: _178  and  _180
REMARK   74  A    between atoms: _180  and  _181
REMARK   75  A    between atoms: _183  and  _185
REMARK   76  A    between atoms: _185  and  _186
REMARK   77  A    between atoms: _185  and  _188
REMARK   78  A    between atoms: _188  and  _189
REMARK   79  A    between atoms: _191  and  _193
REMARK   80  A    between atoms: _193  and  _194
REMARK   81  A    between atoms: _193  and  _196
REMARK   82  A    between atoms: _196  and  _197
REMARK   83  A    between atoms: _197  and  _198
REMARK   84  A    between atoms: _198  and  _199
REMARK   85  A    between atoms: _199  and  _200
REMARK   86  A    between atoms: _204  and  _206
REMARK   87  A    between atoms: _206  and  _207
REMARK   88  A    between atoms: _206  and  _209
REMARK   89  A    between atoms: _209  and  _210
REMARK   90  A    between atoms: _213  and  _215
REMARK   91  A    between atoms: _215  and  _216
REMARK   92  A    between atoms: _215  and  _218
REMARK   93  A    between atoms: _218  and  _219
REMARK   94  A    between atoms: _219  and  _220
REMARK   95  A    between atoms: _223  and  _225
REMARK   96  A    between atoms: _225  and  _226
REMARK   97  A    between atoms: _225  and  _228
REMARK   98  A    between atoms: _228  and  _229
REMARK   99  A    between atoms: _239  and  _241
REMARK  100  A    between atoms: _241  and  _242
REMARK  101  A    between atoms: _241  and  _244
REMARK  102  A    between atoms: _244  and  _245
REMARK  103  A    between atoms: _245  and  _246
REMARK  104  A    between atoms: _246  and  _247
REMARK  105  A    between atoms: _256  and  _258
REMARK  106  A    between atoms: _258  and  _259
REMARK  107  A    between atoms: _258  and  _261
REMARK  108  A    between atoms: _261  and  _262
REMARK  109  A    between atoms: _265  and  _267
REMARK  110  A    between atoms: _267  and  _268
REMARK  111  A    between atoms: _267  and  _270
REMARK  112  A    between atoms: _270  and  _271
REMARK  113  A    between atoms: _281  and  _283
REMARK  114  A    between atoms: _283  and  _284
REMARK  115  A    between atoms: _283  and  _286
REMARK  116  A    between atoms: _286  and  _287
REMARK  117  A    between atoms: _293  and  _295
REMARK  118  A    between atoms: _295  and  _296
REMARK  119  A    between atoms: _295  and  _298
REMARK  120  A    between atoms: _298  and  _299
REMARK  121  A    between atoms: _302  and  _304
REMARK  122  A    between atoms: _304  and  _305
REMARK  123  A    between atoms: _304  and  _307
REMARK  124  A    between atoms: _307  and  _308
REMARK  125  A    between atoms: _311  and  _313
REMARK  126  A    between atoms: _313  and  _314
REMARK  127  A    between atoms: _313  and  _316
REMARK  128  A    between atoms: _316  and  _317
REMARK  129  A    between atoms: _322  and  _323
REMARK  130  A    between atoms: _325  and  _327
REMARK  131  A    between atoms: _327  and  _328
REMARK  132  A    between atoms: _327  and  _330
REMARK  133  A    between atoms: _330  and  _331
REMARK  134  A    between atoms: _331  and  _332
REMARK  135  A    between atoms: _335  and  _337
REMARK  136  A    between atoms: _337  and  _338
REMARK  137  A    between atoms: _337  and  _340
REMARK  138  A    between atoms: _340  and  _341
REMARK  139  A    between atoms: _341  and  _342
REMARK  140  A    between atoms: _342  and  _343
REMARK  141  A    between atoms: _343  and  _344
REMARK  142  A    between atoms: _348  and  _350
REMARK  143  A    between atoms: _350  and  _351
REMARK  144  A    between atoms: _350  and  _353
REMARK  145  A    between atoms: _353  and  _354
REMARK  146  A    between atoms: _358  and  _359
REMARK  147  A    between atoms: _364  and  _366
REMARK  148  A    between atoms: _366  and  _367
REMARK  149  A    between atoms: _366  and  _369
REMARK  150  A    between atoms: _372  and  _374
REMARK  151  A    between atoms: _374  and  _375
REMARK  152  A    between atoms: _374  and  _377
REMARK  153  A    between atoms: _377  and  _378
REMARK  154  A    between atoms: _381  and  _383
REMARK  155  A    between atoms: _383  and  _384
REMARK  156  A    between atoms: _383  and  _386
REMARK  157  A    between atoms: _386  and  _387
REMARK  158  A    between atoms: _392  and  _393
REMARK  159  A    between atoms: _395  and  _397
REMARK  160  A    between atoms: _397  and  _398
REMARK  161  A    between atoms: _397  and  _400
REMARK  162  A    between atoms: _400  and  _401
REMARK  163  A    between atoms: _401  and  _402
REMARK  164  A    between atoms: _404  and  _406
REMARK  165  A    between atoms: _406  and  _407
REMARK  166  A    between atoms: _406  and  _409
REMARK  167  A    between atoms: _409  and  _410
REMARK  168  A    between atoms: _415  and  _416
REMARK  169  A    between atoms: _418  and  _420
REMARK  170  A    between atoms: _420  and  _421
REMARK  171  A    between atoms: _420  and  _423
REMARK  172  A    between atoms: _423  and  _424
REMARK  173  A    between atoms: _424  and  _425
REMARK  174  A    between atoms: _430  and  _432
REMARK  175  A    between atoms: _432  and  _433
REMARK  176  A    between atoms: _432  and  _435
REMARK  177  A    between atoms: _435  and  _436
REMARK  178  A    between atoms: _439  and  _441
REMARK  179  A    between atoms: _441  and  _442
REMARK  180  A    between atoms: _441  and  _444
REMARK  181  A    between atoms: _444  and  _445
REMARK  182  A    between atoms: _448  and  _450
REMARK  183  A    between atoms: _450  and  _451
REMARK  184  A    between atoms: _450  and  _453
REMARK  185  A    between atoms: _453  and  _454
REMARK  186  A    between atoms: _457  and  _459
REMARK  187  A    between atoms: _459  and  _460
REMARK  188  A    between atoms: _459  and  _462
REMARK  189  A    between atoms: _462  and  _463
REMARK  190  A    between atoms: _466  and  _468
REMARK  191  A    between atoms: _468  and  _469
REMARK  192  A    between atoms: _468  and  _471
REMARK  193  A    between atoms: _471  and  _472
REMARK  194  A    between atoms: _477  and  _478
REMARK  195  A    between atoms: _480  and  _482
REMARK  196  A    between atoms: _482  and  _483
REMARK  197  A    between atoms: _482  and  _485
REMARK  198  A    between atoms: _485  and  _486
REMARK  199  A    between atoms: _486  and  _487
REMARK  200  A    between atoms: _490  and  _492
REMARK  201  A    between atoms: _492  and  _493
REMARK  202  A    between atoms: _495  and  _497
REMARK  203  A    between atoms: _497  and  _498
REMARK  204  A    between atoms: _497  and  _500
REMARK  205  A    between atoms: _500  and  _501
REMARK  206  A    between atoms: _504  and  _506
REMARK  207  A    between atoms: _506  and  _507
REMARK  208  A    between atoms: _506  and  _509
REMARK  209  A    between atoms: _509  and  _510
REMARK  210  A    between atoms: _513  and  _515
REMARK  211  A    between atoms: _515  and  _516
REMARK  212  A    between atoms: _515  and  _518
REMARK  213  A    between atoms: _518  and  _519
REMARK  214  A    between atoms: _519  and  _520
REMARK  215  A    between atoms: _520  and  _521
REMARK  216  A    between atoms: _530  and  _532
REMARK  217  A    between atoms: _532  and  _533
REMARK  218  A    between atoms: _532  and  _535
REMARK  219  A    between atoms: _535  and  _536
REMARK  220  A    between atoms: _539  and  _541
REMARK  221  A    between atoms: _541  and  _542
REMARK  222  A    between atoms: _541  and  _544
REMARK  223  A    between atoms: _544  and  _545
REMARK  224  A    between atoms: _551  and  _553
REMARK  225  A    between atoms: _553  and  _554
REMARK  226  A    between atoms: _553  and  _556
REMARK  227  A    between atoms: _556  and  _557
REMARK  228  A    between atoms: _562  and  _564
REMARK  229  A    between atoms: _564  and  _565
REMARK  230  A    between atoms: _564  and  _567
REMARK  231  A    between atoms: _567  and  _568
REMARK  232  A    between atoms: _571  and  _573
REMARK  233  A    between atoms: _573  and  _574
REMARK  234  A    between atoms: _573  and  _576
REMARK  235  A    between atoms: _576  and  _577
REMARK  236  A    between atoms: _582  and  _583
REMARK                            x       y       z     vdW  Elec       q    Type
REMARK                         _______ _______ _______ _____ _____    ______ ____
ROOT
ATOM      1  O   HOH     1      20.826  11.851   0.255  0.00  0.00    +0.000 OA
ENDROOT
TORSDOF 0
REMARK  Name = ../refined-set-2016/4h75/4h75_pocket.pdb
REMARK  236 active torsions:
REMARK  status: ('A' for Active; 'I' for Inactive)
REMARK    1  A    between atoms: _1  and  _3
REMARK    2  A    between atoms: _3  and  _4
REMARK    3  A    between atoms: _3  and  _6
REMARK    4  A    between atoms: _6  and  _7
REMARK    5  A    between atoms: _17  and  _19
REMARK    6  A    between atoms: _19  and  _20
REMARK    7  A    between atoms: _19  and  _22
REMARK    8  A    between atoms: _22  and  _23
REMARK    9  A    between atoms: _23  and  _24
REMARK   10  A    between atoms: _24  and  _25
REMARK   11  A    between atoms: _25  and  _26
REMARK   12  A    between atoms: _30  and  _32
REMARK   13  A    between atoms: _32  and  _33
REMARK   14  A    between atoms: _32  and  _35
REMARK   15  A    between atoms: _35  and  _36
REMARK   16  A    between atoms: _41  and  _42
REMARK   17  A    between atoms: _44  and  _46
REMARK   18  A    between atoms: _46  and  _47
REMARK   19  A    between atoms: _46  and  _49
REMARK   20  A    between atoms: _49  and  _50
REMARK   21  A    between atoms: _53  and  _55
REMARK   22  A    between atoms: _55  and  _56
REMARK   23  A    between atoms: _58  and  _60
REMARK   24  A    between atoms: _60  and  _61
REMARK   25  A    between atoms: _60  and  _63
REMARK   26  A    between atoms: _63  and  _64
REMARK   27  A    between atoms: _70  and  _72
REMARK   28  A    between atoms: _72  and  _73
REMARK   29  A    between atoms: _72  and  _75
REMARK   30  A    between atoms: _75  and  _76
REMARK   31  A    between atoms: _79  and  _81
REMARK   32  A    between atoms: _81  and  _82
REMARK   33  A    between atoms: _81  and  _84
REMARK   34  A    between atoms: _86  and  _88
REMARK   35  A    between atoms: _88  and  _89
REMARK   36  A    between atoms: _88  and  _91
REMARK   37  A    between atoms: _94  and  _96
REMARK   38  A    between atoms: _96  and  _97
REMARK   39  A    between atoms: _96  and  _99
REMARK   40  A    between atoms: _99  and  _100
REMARK   41  A    between atoms: _105  and  _106
REMARK   42  A    between atoms: _108  and  _110
REMARK   43  A    between atoms: _110  and  _111
REMARK   44  A    between atoms: _110  and  _113
REMARK   45  A    between atoms: _113  and  _114
REMARK   46  A    between atoms: _119  and  _121
REMARK   47  A    between atoms: _121  and  _122
REMARK   48  A    between atoms: _121  and  _124
REMARK   49  A    between atoms: _124  and  _125
REMARK   50  A    between atoms: _125  and  _126
REMARK   51  A    between atoms: _128  and  _130
REMARK   52  A    between atoms: _130  and  _131
REMARK   53  A    between atoms: _130  and  _133
REMARK   54  A    between atoms: _133  and  _134
REMARK   55  A    between atoms: _140  and  _142
REMARK   56  A    between atoms: _142  and  _143
REMARK   57  A    between atoms: _142  and  _145
REMARK   58  A    between atoms: _145  and  _146
REMARK   59  A    between atoms: _146  and  _147
REMARK   60  A    between atoms: _150  and  _152
REMARK   61  A    between atoms: _152  and  _153
REMARK   62  A    between atoms: _152  and  _155
REMARK   63  A    between atoms: _155  and  _156
REMARK   64  A    between atoms: _159  and  _161
REMARK   65  A    between atoms: _161  and  _162
REMARK   66  A    between atoms: _161  and  _164
REMARK   67  A    between atoms: _164  and  _165
REMARK   68  A    between atoms: _165  and  _166
REMARK   69  A    between atoms: _169  and  _171
REMARK   70  A    between atoms: _171  and  _172
REMARK   71  A    between atoms: _171  and  _174
REMARK   72  A    between atoms: _174  and  _175
REMARK   73  A    between atoms: _178  and  _180
REMARK   74  A    between atoms: _180  and  _181
REMARK   75  A    between atoms: _183  and  _185
REMARK   76  A    between atoms: _185  and  _186
REMARK   77  A    between atoms: _185  and  _188
REMARK   78  A    between atoms: _188  and  _189
REMARK   79  A    between atoms: _191  and  _193
REMARK   80  A    between atoms: _193  and  _194
REMARK   81  A    between atoms: _193  and  _196
REMARK   82  A    between atoms: _196  and  _197
REMARK   83  A    between atoms: _197  and  _198
REMARK   84  A    between atoms: _198  and  _199
REMARK   85  A    between atoms: _199  and  _200
REMARK   86  A    between atoms: _204  and  _206
REMARK   87  A    between atoms: _206  and  _207
REMARK   88  A    between atoms: _206  and  _209
REMARK   89  A    between atoms: _209  and  _210
REMARK   90  A    between atoms: _213  and  _215
REMARK   91  A    between atoms: _215  and  _216
REMARK   92  A    between atoms: _215  and  _218
REMARK   93  A    between atoms: _218  and  _219
REMARK   94  A    between atoms: _219  and  _220
REMARK   95  A    between atoms: _223  and  _225
REMARK   96  A    between atoms: _225  and  _226
REMARK   97  A    between atoms: _225  and  _228
REMARK   98  A    between atoms: _228  and  _229
REMARK   99  A    between atoms: _239  and  _241
REMARK  100  A    between atoms: _241  and  _242
REMARK  101  A    between atoms: _241  and  _244
REMARK  102  A    between atoms: _244  and  _245
REMARK  103  A    between atoms: _245  and  _246
REMARK  104  A    between atoms: _246  and  _247
REMARK  105  A    between atoms: _256  and  _258
REMARK  106  A    between atoms: _258  and  _259
REMARK  107  A    between atoms: _258  and  _261
REMARK  108  A    between atoms: _261  and  _262
REMARK  109  A    between atoms: _265  and  _267
REMARK  110  A    between atoms: _267  and  _268
REMARK  111  A    between atoms: _267  and  _270
REMARK  112  A    between atoms: _270  and  _271
REMARK  113  A    between atoms: _281  and  _283
REMARK  114  A    between atoms: _283  and  _284
REMARK  115  A    between atoms: _283  and  _286
REMARK  116  A    between atoms: _286  and  _287
REMARK  117  A    between atoms: _293  and  _295
REMARK  118  A    between atoms: _295  and  _296
REMARK  119  A    between atoms: _295  and  _298
REMARK  120  A    between atoms: _298  and  _299
REMARK  121  A    between atoms: _302  and  _304
REMARK  122  A    between atoms: _304  and  _305
REMARK  123  A    between atoms: _304  and  _307
REMARK  124  A    between atoms: _307  and  _308
REMARK  125  A    between atoms: _311  and  _313
REMARK  126  A    between atoms: _313  and  _314
REMARK  127  A    between atoms: _313  and  _316
REMARK  128  A    between atoms: _316  and  _317
REMARK  129  A    between atoms: _322  and  _323
REMARK  130  A    between atoms: _325  and  _327
REMARK  131  A    between atoms: _327  and  _328
REMARK  132  A    between atoms: _327  and  _330
REMARK  133  A    between atoms: _330  and  _331
REMARK  134  A    between atoms: _331  and  _332
REMARK  135  A    between atoms: _335  and  _337
REMARK  136  A    between atoms: _337  and  _338
REMARK  137  A    between atoms: _337  and  _340
REMARK  138  A    between atoms: _340  and  _341
REMARK  139  A    between atoms: _341  and  _342
REMARK  140  A    between atoms: _342  and  _343
REMARK  141  A    between atoms: _343  and  _344
REMARK  142  A    between atoms: _348  and  _350
REMARK  143  A    between atoms: _350  and  _351
REMARK  144  A    between atoms: _350  and  _353
REMARK  145  A    between atoms: _353  and  _354
REMARK  146  A    between atoms: _358  and  _359
REMARK  147  A    between atoms: _364  and  _366
REMARK  148  A    between atoms: _366  and  _367
REMARK  149  A    between atoms: _366  and  _369
REMARK  150  A    between atoms: _372  and  _374
REMARK  151  A    between atoms: _374  and  _375
REMARK  152  A    between atoms: _374  and  _377
REMARK  153  A    between atoms: _377  and  _378
REMARK  154  A    between atoms: _381  and  _383
REMARK  155  A    between atoms: _383  and  _384
REMARK  156  A    between atoms: _383  and  _386
REMARK  157  A    between atoms: _386  and  _387
REMARK  158  A    between atoms: _392  and  _393
REMARK  159  A    between atoms: _395  and  _397
REMARK  160  A    between atoms: _397  and  _398
REMARK  161  A    between atoms: _397  and  _400
REMARK  162  A    between atoms: _400  and  _401
REMARK  163  A    between atoms: _401  and  _402
REMARK  164  A    between atoms: _404  and  _406
REMARK  165  A    between atoms: _406  and  _407
REMARK  166  A    between atoms: _406  and  _409
REMARK  167  A    between atoms: _409  and  _410
REMARK  168  A    between atoms: _415  and  _416
REMARK  169  A    between atoms: _418  and  _420
REMARK  170  A    between atoms: _420  and  _421
REMARK  171  A    between atoms: _420  and  _423
REMARK  172  A    between atoms: _423  and  _424
REMARK  173  A    between atoms: _424  and  _425
REMARK  174  A    between atoms: _430  and  _432
REMARK  175  A    between atoms: _432  and  _433
REMARK  176  A    between atoms: _432  and  _435
REMARK  177  A    between atoms: _435  and  _436
REMARK  178  A    between atoms: _439  and  _441
REMARK  179  A    between atoms: _441  and  _442
REMARK  180  A    between atoms: _441  and  _444
REMARK  181  A    between atoms: _444  and  _445
REMARK  182  A    between atoms: _448  and  _450
REMARK  183  A    between atoms: _450  and  _451
REMARK  184  A    between atoms: _450  and  _453
REMARK  185  A    between atoms: _453  and  _454
REMARK  186  A    between atoms: _457  and  _459
REMARK  187  A    between atoms: _459  and  _460
REMARK  188  A    between atoms: _459  and  _462
REMARK  189  A    between atoms: _462  and  _463
REMARK  190  A    between atoms: _466  and  _468
REMARK  191  A    between atoms: _468  and  _469
REMARK  192  A    between atoms: _468  and  _471
REMARK  193  A    between atoms: _471  and  _472
REMARK  194  A    between atoms: _477  and  _478
REMARK  195  A    between atoms: _480  and  _482
REMARK  196  A    between atoms: _482  and  _483
REMARK  197  A    between atoms: _482  and  _485
REMARK  198  A    between atoms: _485  and  _486
REMARK  199  A    between atoms: _486  and  _487
REMARK  200  A    between atoms: _490  and  _492
REMARK  201  A    between atoms: _492  and  _493
REMARK  202  A    between atoms: _495  and  _497
REMARK  203  A    between atoms: _497  and  _498
REMARK  204  A    between atoms: _497  and  _500
REMARK  205  A    between atoms: _500  and  _501
REMARK  206  A    between atoms: _504  and  _506
REMARK  207  A    between atoms: _506  and  _507
REMARK  208  A    between atoms: _506  and  _509
REMARK  209  A    between atoms: _509  and  _510
REMARK  210  A    between atoms: _513  and  _515
REMARK  211  A    between atoms: _515  and  _516
REMARK  212  A    between atoms: _515  and  _518
REMARK  213  A    between atoms: _518  and  _519
REMARK  214  A    between atoms: _519  and  _520
REMARK  215  A    between atoms: _520  and  _521
REMARK  216  A    between atoms: _530  and  _532
REMARK  217  A    between atoms: _532  and  _533
REMARK  218  A    between atoms: _532  and  _535
REMARK  219  A    between atoms: _535  and  _536
REMARK  220  A    between atoms: _539  and  _541
REMARK  221  A    between atoms: _541  and  _542
REMARK  222  A    between atoms: _541  and  _544
REMARK  223  A    between atoms: _544  and  _545
REMARK  224  A    between atoms: _551  and  _553
REMARK  225  A    between atoms: _553  and  _554
REMARK  226  A    between atoms: _553  and  _556
REMARK  227  A    between atoms: _556  and  _557
REMARK  228  A    between atoms: _562  and  _564
REMARK  229  A    between atoms: _564  and  _565
REMARK  230  A    between atoms: _564  and  _567
REMARK  231  A    between atoms: _567  and  _568
REMARK  232  A    between atoms: _571  and  _573
REMARK  233  A    between atoms: _573  and  _574
REMARK  234  A    between atoms: _573  and  _576
REMARK  235  A    between atoms: _576  and  _577
REMARK  236  A    between atoms: _582  and  _583
REMARK                            x       y       z     vdW  Elec       q    Type
REMARK                         _______ _______ _______ _____ _____    ______ ____
ROOT
ATOM      1  O   HOH     1      11.442  19.332   3.934  0.00  0.00    +0.000 OA
ENDROOT
TORSDOF 0
REMARK  Name = ../refined-set-2016/4h75/4h75_pocket.pdb
REMARK  236 active torsions:
REMARK  status: ('A' for Active; 'I' for Inactive)
REMARK    1  A    between atoms: _1  and  _3
REMARK    2  A    between atoms: _3  and  _4
REMARK    3  A    between atoms: _3  and  _6
REMARK    4  A    between atoms: _6  and  _7
REMARK    5  A    between atoms: _17  and  _19
REMARK    6  A    between atoms: _19  and  _20
REMARK    7  A    between atoms: _19  and  _22
REMARK    8  A    between atoms: _22  and  _23
REMARK    9  A    between atoms: _23  and  _24
REMARK   10  A    between atoms: _24  and  _25
REMARK   11  A    between atoms: _25  and  _26
REMARK   12  A    between atoms: _30  and  _32
REMARK   13  A    between atoms: _32  and  _33
REMARK   14  A    between atoms: _32  and  _35
REMARK   15  A    between atoms: _35  and  _36
REMARK   16  A    between atoms: _41  and  _42
REMARK   17  A    between atoms: _44  and  _46
REMARK   18  A    between atoms: _46  and  _47
REMARK   19  A    between atoms: _46  and  _49
REMARK   20  A    between atoms: _49  and  _50
REMARK   21  A    between atoms: _53  and  _55
REMARK   22  A    between atoms: _55  and  _56
REMARK   23  A    between atoms: _58  and  _60
REMARK   24  A    between atoms: _60  and  _61
REMARK   25  A    between atoms: _60  and  _63
REMARK   26  A    between atoms: _63  and  _64
REMARK   27  A    between atoms: _70  and  _72
REMARK   28  A    between atoms: _72  and  _73
REMARK   29  A    between atoms: _72  and  _75
REMARK   30  A    between atoms: _75  and  _76
REMARK   31  A    between atoms: _79  and  _81
REMARK   32  A    between atoms: _81  and  _82
REMARK   33  A    between atoms: _81  and  _84
REMARK   34  A    between atoms: _86  and  _88
REMARK   35  A    between atoms: _88  and  _89
REMARK   36  A    between atoms: _88  and  _91
REMARK   37  A    between atoms: _94  and  _96
REMARK   38  A    between atoms: _96  and  _97
REMARK   39  A    between atoms: _96  and  _99
REMARK   40  A    between atoms: _99  and  _100
REMARK   41  A    between atoms: _105  and  _106
REMARK   42  A    between atoms: _108  and  _110
REMARK   43  A    between atoms: _110  and  _111
REMARK   44  A    between atoms: _110  and  _113
REMARK   45  A    between atoms: _113  and  _114
REMARK   46  A    between atoms: _119  and  _121
REMARK   47  A    between atoms: _121  and  _122
REMARK   48  A    between atoms: _121  and  _124
REMARK   49  A    between atoms: _124  and  _125
REMARK   50  A    between atoms: _125  and  _126
REMARK   51  A    between atoms: _128  and  _130
REMARK   52  A    between atoms: _130  and  _131
REMARK   53  A    between atoms: _130  and  _133
REMARK   54  A    between atoms: _133  and  _134
REMARK   55  A    between atoms: _140  and  _142
REMARK   56  A    between atoms: _142  and  _143
REMARK   57  A    between atoms: _142  and  _145
REMARK   58  A    between atoms: _145  and  _146
REMARK   59  A    between atoms: _146  and  _147
REMARK   60  A    between atoms: _150  and  _152
REMARK   61  A    between atoms: _152  and  _153
REMARK   62  A    between atoms: _152  and  _155
REMARK   63  A    between atoms: _155  and  _156
REMARK   64  A    between atoms: _159  and  _161
REMARK   65  A    between atoms: _161  and  _162
REMARK   66  A    between atoms: _161  and  _164
REMARK   67  A    between atoms: _164  and  _165
REMARK   68  A    between atoms: _165  and  _166
REMARK   69  A    between atoms: _169  and  _171
REMARK   70  A    between atoms: _171  and  _172
REMARK   71  A    between atoms: _171  and  _174
REMARK   72  A    between atoms: _174  and  _175
REMARK   73  A    between atoms: _178  and  _180
REMARK   74  A    between atoms: _180  and  _181
REMARK   75  A    between atoms: _183  and  _185
REMARK   76  A    between atoms: _185  and  _186
REMARK   77  A    between atoms: _185  and  _188
REMARK   78  A    between atoms: _188  and  _189
REMARK   79  A    between atoms: _191  and  _193
REMARK   80  A    between atoms: _193  and  _194
REMARK   81  A    between atoms: _193  and  _196
REMARK   82  A    between atoms: _196  and  _197
REMARK   83  A    between atoms: _197  and  _198
REMARK   84  A    between atoms: _198  and  _199
REMARK   85  A    between atoms: _199  and  _200
REMARK   86  A    between atoms: _204  and  _206
REMARK   87  A    between atoms: _206  and  _207
REMARK   88  A    between atoms: _206  and  _209
REMARK   89  A    between atoms: _209  and  _210
REMARK   90  A    between atoms: _213  and  _215
REMARK   91  A    between atoms: _215  and  _216
REMARK   92  A    between atoms: _215  and  _218
REMARK   93  A    between atoms: _218  and  _219
REMARK   94  A    between atoms: _219  and  _220
REMARK   95  A    between atoms: _223  and  _225
REMARK   96  A    between atoms: _225  and  _226
REMARK   97  A    between atoms: _225  and  _228
REMARK   98  A    between atoms: _228  and  _229
REMARK   99  A    between atoms: _239  and  _241
REMARK  100  A    between atoms: _241  and  _242
REMARK  101  A    between atoms: _241  and  _244
REMARK  102  A    between atoms: _244  and  _245
REMARK  103  A    between atoms: _245  and  _246
REMARK  104  A    between atoms: _246  and  _247
REMARK  105  A    between atoms: _256  and  _258
REMARK  106  A    between atoms: _258  and  _259
REMARK  107  A    between atoms: _258  and  _261
REMARK  108  A    between atoms: _261  and  _262
REMARK  109  A    between atoms: _265  and  _267
REMARK  110  A    between atoms: _267  and  _268
REMARK  111  A    between atoms: _267  and  _270
REMARK  112  A    between atoms: _270  and  _271
REMARK  113  A    between atoms: _281  and  _283
REMARK  114  A    between atoms: _283  and  _284
REMARK  115  A    between atoms: _283  and  _286
REMARK  116  A    between atoms: _286  and  _287
REMARK  117  A    between atoms: _293  and  _295
REMARK  118  A    between atoms: _295  and  _296
REMARK  119  A    between atoms: _295  and  _298
REMARK  120  A    between atoms: _298  and  _299
REMARK  121  A    between atoms: _302  and  _304
REMARK  122  A    between atoms: _304  and  _305
REMARK  123  A    between atoms: _304  and  _307
REMARK  124  A    between atoms: _307  and  _308
REMARK  125  A    between atoms: _311  and  _313
REMARK  126  A    between atoms: _313  and  _314
REMARK  127  A    between atoms: _313  and  _316
REMARK  128  A    between atoms: _316  and  _317
REMARK  129  A    between atoms: _322  and  _323
REMARK  130  A    between atoms: _325  and  _327
REMARK  131  A    between atoms: _327  and  _328
REMARK  132  A    between atoms: _327  and  _330
REMARK  133  A    between atoms: _330  and  _331
REMARK  134  A    between atoms: _331  and  _332
REMARK  135  A    between atoms: _335  and  _337
REMARK  136  A    between atoms: _337  and  _338
REMARK  137  A    between atoms: _337  and  _340
REMARK  138  A    between atoms: _340  and  _341
REMARK  139  A    between atoms: _341  and  _342
REMARK  140  A    between atoms: _342  and  _343
REMARK  141  A    between atoms: _343  and  _344
REMARK  142  A    between atoms: _348  and  _350
REMARK  143  A    between atoms: _350  and  _351
REMARK  144  A    between atoms: _350  and  _353
REMARK  145  A    between atoms: _353  and  _354
REMARK  146  A    between atoms: _358  and  _359
REMARK  147  A    between atoms: _364  and  _366
REMARK  148  A    between atoms: _366  and  _367
REMARK  149  A    between atoms: _366  and  _369
REMARK  150  A    between atoms: _372  and  _374
REMARK  151  A    between atoms: _374  and  _375
REMARK  152  A    between atoms: _374  and  _377
REMARK  153  A    between atoms: _377  and  _378
REMARK  154  A    between atoms: _381  and  _383
REMARK  155  A    between atoms: _383  and  _384
REMARK  156  A    between atoms: _383  and  _386
REMARK  157  A    between atoms: _386  and  _387
REMARK  158  A    between atoms: _392  and  _393
REMARK  159  A    between atoms: _395  and  _397
REMARK  160  A    between atoms: _397  and  _398
REMARK  161  A    between atoms: _397  and  _400
REMARK  162  A    between atoms: _400  and  _401
REMARK  163  A    between atoms: _401  and  _402
REMARK  164  A    between atoms: _404  and  _406
REMARK  165  A    between atoms: _406  and  _407
REMARK  166  A    between atoms: _406  and  _409
REMARK  167  A    between atoms: _409  and  _410
REMARK  168  A    between atoms: _415  and  _416
REMARK  169  A    between atoms: _418  and  _420
REMARK  170  A    between atoms: _420  and  _421
REMARK  171  A    between atoms: _420  and  _423
REMARK  172  A    between atoms: _423  and  _424
REMARK  173  A    between atoms: _424  and  _425
REMARK  174  A    between atoms: _430  and  _432
REMARK  175  A    between atoms: _432  and  _433
REMARK  176  A    between atoms: _432  and  _435
REMARK  177  A    between atoms: _435  and  _436
REMARK  178  A    between atoms: _439  and  _441
REMARK  179  A    between atoms: _441  and  _442
REMARK  180  A    between atoms: _441  and  _444
REMARK  181  A    between atoms: _444  and  _445
REMARK  182  A    between atoms: _448  and  _450
REMARK  183  A    between atoms: _450  and  _451
REMARK  184  A    between atoms: _450  and  _453
REMARK  185  A    between atoms: _453  and  _454
REMARK  186  A    between atoms: _457  and  _459
REMARK  187  A    between atoms: _459  and  _460
REMARK  188  A    between atoms: _459  and  _462
REMARK  189  A    between atoms: _462  and  _463
REMARK  190  A    between atoms: _466  and  _468
REMARK  191  A    between atoms: _468  and  _469
REMARK  192  A    between atoms: _468  and  _471
REMARK  193  A    between atoms: _471  and  _472
REMARK  194  A    between atoms: _477  and  _478
REMARK  195  A    between atoms: _480  and  _482
REMARK  196  A    between atoms: _482  and  _483
REMARK  197  A    between atoms: _482  and  _485
REMARK  198  A    between atoms: _485  and  _486
REMARK  199  A    between atoms: _486  and  _487
REMARK  200  A    between atoms: _490  and  _492
REMARK  201  A    between atoms: _492  and  _493
REMARK  202  A    between atoms: _495  and  _497
REMARK  203  A    between atoms: _497  and  _498
REMARK  204  A    between atoms: _497  and  _500
REMARK  205  A    between atoms: _500  and  _501
REMARK  206  A    between atoms: _504  and  _506
REMARK  207  A    between atoms: _506  and  _507
REMARK  208  A    between atoms: _506  and  _509
REMARK  209  A    between atoms: _509  and  _510
REMARK  210  A    between atoms: _513  and  _515
REMARK  211  A    between atoms: _515  and  _516
REMARK  212  A    between atoms: _515  and  _518
REMARK  213  A    between atoms: _518  and  _519
REMARK  214  A    between atoms: _519  and  _520
REMARK  215  A    between atoms: _520  and  _521
REMARK  216  A    between atoms: _530  and  _532
REMARK  217  A    between atoms: _532  and  _533
REMARK  218  A    between atoms: _532  and  _535
REMARK  219  A    between atoms: _535  and  _536
REMARK  220  A    between atoms: _539  and  _541
REMARK  221  A    between atoms: _541  and  _542
REMARK  222  A    between atoms: _541  and  _544
REMARK  223  A    between atoms: _544  and  _545
REMARK  224  A    between atoms: _551  and  _553
REMARK  225  A    between atoms: _553  and  _554
REMARK  226  A    between atoms: _553  and  _556
REMARK  227  A    between atoms: _556  and  _557
REMARK  228  A    between atoms: _562  and  _564
REMARK  229  A    between atoms: _564  and  _565
REMARK  230  A    between atoms: _564  and  _567
REMARK  231  A    between atoms: _567  and  _568
REMARK  232  A    between atoms: _571  and  _573
REMARK  233  A    between atoms: _573  and  _574
REMARK  234  A    between atoms: _573  and  _576
REMARK  235  A    between atoms: _576  and  _577
REMARK  236  A    between atoms: _582  and  _583
REMARK                            x       y       z     vdW  Elec       q    Type
REMARK                         _______ _______ _______ _____ _____    ______ ____
ROOT
ATOM      1  O   HOH     1      20.698   5.037  10.893  0.00  0.00    +0.000 OA
ENDROOT
TORSDOF 0
REMARK  Name = ../refined-set-2016/4h75/4h75_pocket.pdb
REMARK  236 active torsions:
REMARK  status: ('A' for Active; 'I' for Inactive)
REMARK    1  A    between atoms: _1  and  _3
REMARK    2  A    between atoms: _3  and  _4
REMARK    3  A    between atoms: _3  and  _6
REMARK    4  A    between atoms: _6  and  _7
REMARK    5  A    between atoms: _17  and  _19
REMARK    6  A    between atoms: _19  and  _20
REMARK    7  A    between atoms: _19  and  _22
REMARK    8  A    between atoms: _22  and  _23
REMARK    9  A    between atoms: _23  and  _24
REMARK   10  A    between atoms: _24  and  _25
REMARK   11  A    between atoms: _25  and  _26
REMARK   12  A    between atoms: _30  and  _32
REMARK   13  A    between atoms: _32  and  _33
REMARK   14  A    between atoms: _32  and  _35
REMARK   15  A    between atoms: _35  and  _36
REMARK   16  A    between atoms: _41  and  _42
REMARK   17  A    between atoms: _44  and  _46
REMARK   18  A    between atoms: _46  and  _47
REMARK   19  A    between atoms: _46  and  _49
REMARK   20  A    between atoms: _49  and  _50
REMARK   21  A    between atoms: _53  and  _55
REMARK   22  A    between atoms: _55  and  _56
REMARK   23  A    between atoms: _58  and  _60
REMARK   24  A    between atoms: _60  and  _61
REMARK   25  A    between atoms: _60  and  _63
REMARK   26  A    between atoms: _63  and  _64
REMARK   27  A    between atoms: _70  and  _72
REMARK   28  A    between atoms: _72  and  _73
REMARK   29  A    between atoms: _72  and  _75
REMARK   30  A    between atoms: _75  and  _76
REMARK   31  A    between atoms: _79  and  _81
REMARK   32  A    between atoms: _81  and  _82
REMARK   33  A    between atoms: _81  and  _84
REMARK   34  A    between atoms: _86  and  _88
REMARK   35  A    between atoms: _88  and  _89
REMARK   36  A    between atoms: _88  and  _91
REMARK   37  A    between atoms: _94  and  _96
REMARK   38  A    between atoms: _96  and  _97
REMARK   39  A    between atoms: _96  and  _99
REMARK   40  A    between atoms: _99  and  _100
REMARK   41  A    between atoms: _105  and  _106
REMARK   42  A    between atoms: _108  and  _110
REMARK   43  A    between atoms: _110  and  _111
REMARK   44  A    between atoms: _110  and  _113
REMARK   45  A    between atoms: _113  and  _114
REMARK   46  A    between atoms: _119  and  _121
REMARK   47  A    between atoms: _121  and  _122
REMARK   48  A    between atoms: _121  and  _124
REMARK   49  A    between atoms: _124  and  _125
REMARK   50  A    between atoms: _125  and  _126
REMARK   51  A    between atoms: _128  and  _130
REMARK   52  A    between atoms: _130  and  _131
REMARK   53  A    between atoms: _130  and  _133
REMARK   54  A    between atoms: _133  and  _134
REMARK   55  A    between atoms: _140  and  _142
REMARK   56  A    between atoms: _142  and  _143
REMARK   57  A    between atoms: _142  and  _145
REMARK   58  A    between atoms: _145  and  _146
REMARK   59  A    between atoms: _146  and  _147
REMARK   60  A    between atoms: _150  and  _152
REMARK   61  A    between atoms: _152  and  _153
REMARK   62  A    between atoms: _152  and  _155
REMARK   63  A    between atoms: _155  and  _156
REMARK   64  A    between atoms: _159  and  _161
REMARK   65  A    between atoms: _161  and  _162
REMARK   66  A    between atoms: _161  and  _164
REMARK   67  A    between atoms: _164  and  _165
REMARK   68  A    between atoms: _165  and  _166
REMARK   69  A    between atoms: _169  and  _171
REMARK   70  A    between atoms: _171  and  _172
REMARK   71  A    between atoms: _171  and  _174
REMARK   72  A    between atoms: _174  and  _175
REMARK   73  A    between atoms: _178  and  _180
REMARK   74  A    between atoms: _180  and  _181
REMARK   75  A    between atoms: _183  and  _185
REMARK   76  A    between atoms: _185  and  _186
REMARK   77  A    between atoms: _185  and  _188
REMARK   78  A    between atoms: _188  and  _189
REMARK   79  A    between atoms: _191  and  _193
REMARK   80  A    between atoms: _193  and  _194
REMARK   81  A    between atoms: _193  and  _196
REMARK   82  A    between atoms: _196  and  _197
REMARK   83  A    between atoms: _197  and  _198
REMARK   84  A    between atoms: _198  and  _199
REMARK   85  A    between atoms: _199  and  _200
REMARK   86  A    between atoms: _204  and  _206
REMARK   87  A    between atoms: _206  and  _207
REMARK   88  A    between atoms: _206  and  _209
REMARK   89  A    between atoms: _209  and  _210
REMARK   90  A    between atoms: _213  and  _215
REMARK   91  A    between atoms: _215  and  _216
REMARK   92  A    between atoms: _215  and  _218
REMARK   93  A    between atoms: _218  and  _219
REMARK   94  A    between atoms: _219  and  _220
REMARK   95  A    between atoms: _223  and  _225
REMARK   96  A    between atoms: _225  and  _226
REMARK   97  A    between atoms: _225  and  _228
REMARK   98  A    between atoms: _228  and  _229
REMARK   99  A    between atoms: _239  and  _241
REMARK  100  A    between atoms: _241  and  _242
REMARK  101  A    between atoms: _241  and  _244
REMARK  102  A    between atoms: _244  and  _245
REMARK  103  A    between atoms: _245  and  _246
REMARK  104  A    between atoms: _246  and  _247
REMARK  105  A    between atoms: _256  and  _258
REMARK  106  A    between atoms: _258  and  _259
REMARK  107  A    between atoms: _258  and  _261
REMARK  108  A    between atoms: _261  and  _262
REMARK  109  A    between atoms: _265  and  _267
REMARK  110  A    between atoms: _267  and  _268
REMARK  111  A    between atoms: _267  and  _270
REMARK  112  A    between atoms: _270  and  _271
REMARK  113  A    between atoms: _281  and  _283
REMARK  114  A    between atoms: _283  and  _284
REMARK  115  A    between atoms: _283  and  _286
REMARK  116  A    between atoms: _286  and  _287
REMARK  117  A    between atoms: _293  and  _295
REMARK  118  A    between atoms: _295  and  _296
REMARK  119  A    between atoms: _295  and  _298
REMARK  120  A    between atoms: _298  and  _299
REMARK  121  A    between atoms: _302  and  _304
REMARK  122  A    between atoms: _304  and  _305
REMARK  123  A    between atoms: _304  and  _307
REMARK  124  A    between atoms: _307  and  _308
REMARK  125  A    between atoms: _311  and  _313
REMARK  126  A    between atoms: _313  and  _314
REMARK  127  A    between atoms: _313  and  _316
REMARK  128  A    between atoms: _316  and  _317
REMARK  129  A    between atoms: _322  and  _323
REMARK  130  A    between atoms: _325  and  _327
REMARK  131  A    between atoms: _327  and  _328
REMARK  132  A    between atoms: _327  and  _330
REMARK  133  A    between atoms: _330  and  _331
REMARK  134  A    between atoms: _331  and  _332
REMARK  135  A    between atoms: _335  and  _337
REMARK  136  A    between atoms: _337  and  _338
REMARK  137  A    between atoms: _337  and  _340
REMARK  138  A    between atoms: _340  and  _341
REMARK  139  A    between atoms: _341  and  _342
REMARK  140  A    between atoms: _342  and  _343
REMARK  141  A    between atoms: _343  and  _344
REMARK  142  A    between atoms: _348  and  _350
REMARK  143  A    between atoms: _350  and  _351
REMARK  144  A    between atoms: _350  and  _353
REMARK  145  A    between atoms: _353  and  _354
REMARK  146  A    between atoms: _358  and  _359
REMARK  147  A    between atoms: _364  and  _366
REMARK  148  A    between atoms: _366  and  _367
REMARK  149  A    between atoms: _366  and  _369
REMARK  150  A    between atoms: _372  and  _374
REMARK  151  A    between atoms: _374  and  _375
REMARK  152  A    between atoms: _374  and  _377
REMARK  153  A    between atoms: _377  and  _378
REMARK  154  A    between atoms: _381  and  _383
REMARK  155  A    between atoms: _383  and  _384
REMARK  156  A    between atoms: _383  and  _386
REMARK  157  A    between atoms: _386  and  _387
REMARK  158  A    between atoms: _392  and  _393
REMARK  159  A    between atoms: _395  and  _397
REMARK  160  A    between atoms: _397  and  _398
REMARK  161  A    between atoms: _397  and  _400
REMARK  162  A    between atoms: _400  and  _401
REMARK  163  A    between atoms: _401  and  _402
REMARK  164  A    between atoms: _404  and  _406
REMARK  165  A    between atoms: _406  and  _407
REMARK  166  A    between atoms: _406  and  _409
REMARK  167  A    between atoms: _409  and  _410
REMARK  168  A    between atoms: _415  and  _416
REMARK  169  A    between atoms: _418  and  _420
REMARK  170  A    between atoms: _420  and  _421
REMARK  171  A    between atoms: _420  and  _423
REMARK  172  A    between atoms: _423  and  _424
REMARK  173  A    between atoms: _424  and  _425
REMARK  174  A    between atoms: _430  and  _432
REMARK  175  A    between atoms: _432  and  _433
REMARK  176  A    between atoms: _432  and  _435
REMARK  177  A    between atoms: _435  and  _436
REMARK  178  A    between atoms: _439  and  _441
REMARK  179  A    between atoms: _441  and  _442
REMARK  180  A    between atoms: _441  and  _444
REMARK  181  A    between atoms: _444  and  _445
REMARK  182  A    between atoms: _448  and  _450
REMARK  183  A    between atoms: _450  and  _451
REMARK  184  A    between atoms: _450  and  _453
REMARK  185  A    between atoms: _453  and  _454
REMARK  186  A    between atoms: _457  and  _459
REMARK  187  A    between atoms: _459  and  _460
REMARK  188  A    between atoms: _459  and  _462
REMARK  189  A    between atoms: _462  and  _463
REMARK  190  A    between atoms: _466  and  _468
REMARK  191  A    between atoms: _468  and  _469
REMARK  192  A    between atoms: _468  and  _471
REMARK  193  A    between atoms: _471  and  _472
REMARK  194  A    between atoms: _477  and  _478
REMARK  195  A    between atoms: _480  and  _482
REMARK  196  A    between atoms: _482  and  _483
REMARK  197  A    between atoms: _482  and  _485
REMARK  198  A    between atoms: _485  and  _486
REMARK  199  A    between atoms: _486  and  _487
REMARK  200  A    between atoms: _490  and  _492
REMARK  201  A    between atoms: _492  and  _493
REMARK  202  A    between atoms: _495  and  _497
REMARK  203  A    between atoms: _497  and  _498
REMARK  204  A    between atoms: _497  and  _500
REMARK  205  A    between atoms: _500  and  _501
REMARK  206  A    between atoms: _504  and  _506
REMARK  207  A    between atoms: _506  and  _507
REMARK  208  A    between atoms: _506  and  _509
REMARK  209  A    between atoms: _509  and  _510
REMARK  210  A    between atoms: _513  and  _515
REMARK  211  A    between atoms: _515  and  _516
REMARK  212  A    between atoms: _515  and  _518
REMARK  213  A    between atoms: _518  and  _519
REMARK  214  A    between atoms: _519  and  _520
REMARK  215  A    between atoms: _520  and  _521
REMARK  216  A    between atoms: _530  and  _532
REMARK  217  A    between atoms: _532  and  _533
REMARK  218  A    between atoms: _532  and  _535
REMARK  219  A    between atoms: _535  and  _536
REMARK  220  A    between atoms: _539  and  _541
REMARK  221  A    between atoms: _541  and  _542
REMARK  222  A    between atoms: _541  and  _544
REMARK  223  A    between atoms: _544  and  _545
REMARK  224  A    between atoms: _551  and  _553
REMARK  225  A    between atoms: _553  and  _554
REMARK  226  A    between atoms: _553  and  _556
REMARK  227  A    between atoms: _556  and  _557
REMARK  228  A    between atoms: _562  and  _564
REMARK  229  A    between atoms: _564  and  _565
REMARK  230  A    between atoms: _564  and  _567
REMARK  231  A    between atoms: _567  and  _568
REMARK  232  A    between atoms: _571  and  _573
REMARK  233  A    between atoms: _573  and  _574
REMARK  234  A    between atoms: _573  and  _576
REMARK  235  A    between atoms: _576  and  _577
REMARK  236  A    between atoms: _582  and  _583
REMARK                            x       y       z     vdW  Elec       q    Type
REMARK                         _______ _______ _______ _____ _____    ______ ____
ROOT
ATOM      1  O   HOH     1      18.297  11.239   2.319  0.00  0.00    +0.000 OA
ENDROOT
TORSDOF 0
REMARK  Name = ../refined-set-2016/4h75/4h75_pocket.pdb
REMARK  236 active torsions:
REMARK  status: ('A' for Active; 'I' for Inactive)
REMARK    1  A    between atoms: _1  and  _3
REMARK    2  A    between atoms: _3  and  _4
REMARK    3  A    between atoms: _3  and  _6
REMARK    4  A    between atoms: _6  and  _7
REMARK    5  A    between atoms: _17  and  _19
REMARK    6  A    between atoms: _19  and  _20
REMARK    7  A    between atoms: _19  and  _22
REMARK    8  A    between atoms: _22  and  _23
REMARK    9  A    between atoms: _23  and  _24
REMARK   10  A    between atoms: _24  and  _25
REMARK   11  A    between atoms: _25  and  _26
REMARK   12  A    between atoms: _30  and  _32
REMARK   13  A    between atoms: _32  and  _33
REMARK   14  A    between atoms: _32  and  _35
REMARK   15  A    between atoms: _35  and  _36
REMARK   16  A    between atoms: _41  and  _42
REMARK   17  A    between atoms: _44  and  _46
REMARK   18  A    between atoms: _46  and  _47
REMARK   19  A    between atoms: _46  and  _49
REMARK   20  A    between atoms: _49  and  _50
REMARK   21  A    between atoms: _53  and  _55
REMARK   22  A    between atoms: _55  and  _56
REMARK   23  A    between atoms: _58  and  _60
REMARK   24  A    between atoms: _60  and  _61
REMARK   25  A    between atoms: _60  and  _63
REMARK   26  A    between atoms: _63  and  _64
REMARK   27  A    between atoms: _70  and  _72
REMARK   28  A    between atoms: _72  and  _73
REMARK   29  A    between atoms: _72  and  _75
REMARK   30  A    between atoms: _75  and  _76
REMARK   31  A    between atoms: _79  and  _81
REMARK   32  A    between atoms: _81  and  _82
REMARK   33  A    between atoms: _81  and  _84
REMARK   34  A    between atoms: _86  and  _88
REMARK   35  A    between atoms: _88  and  _89
REMARK   36  A    between atoms: _88  and  _91
REMARK   37  A    between atoms: _94  and  _96
REMARK   38  A    between atoms: _96  and  _97
REMARK   39  A    between atoms: _96  and  _99
REMARK   40  A    between atoms: _99  and  _100
REMARK   41  A    between atoms: _105  and  _106
REMARK   42  A    between atoms: _108  and  _110
REMARK   43  A    between atoms: _110  and  _111
REMARK   44  A    between atoms: _110  and  _113
REMARK   45  A    between atoms: _113  and  _114
REMARK   46  A    between atoms: _119  and  _121
REMARK   47  A    between atoms: _121  and  _122
REMARK   48  A    between atoms: _121  and  _124
REMARK   49  A    between atoms: _124  and  _125
REMARK   50  A    between atoms: _125  and  _126
REMARK   51  A    between atoms: _128  and  _130
REMARK   52  A    between atoms: _130  and  _131
REMARK   53  A    between atoms: _130  and  _133
REMARK   54  A    between atoms: _133  and  _134
REMARK   55  A    between atoms: _140  and  _142
REMARK   56  A    between atoms: _142  and  _143
REMARK   57  A    between atoms: _142  and  _145
REMARK   58  A    between atoms: _145  and  _146
REMARK   59  A    between atoms: _146  and  _147
REMARK   60  A    between atoms: _150  and  _152
REMARK   61  A    between atoms: _152  and  _153
REMARK   62  A    between atoms: _152  and  _155
REMARK   63  A    between atoms: _155  and  _156
REMARK   64  A    between atoms: _159  and  _161
REMARK   65  A    between atoms: _161  and  _162
REMARK   66  A    between atoms: _161  and  _164
REMARK   67  A    between atoms: _164  and  _165
REMARK   68  A    between atoms: _165  and  _166
REMARK   69  A    between atoms: _169  and  _171
REMARK   70  A    between atoms: _171  and  _172
REMARK   71  A    between atoms: _171  and  _174
REMARK   72  A    between atoms: _174  and  _175
REMARK   73  A    between atoms: _178  and  _180
REMARK   74  A    between atoms: _180  and  _181
REMARK   75  A    between atoms: _183  and  _185
REMARK   76  A    between atoms: _185  and  _186
REMARK   77  A    between atoms: _185  and  _188
REMARK   78  A    between atoms: _188  and  _189
REMARK   79  A    between atoms: _191  and  _193
REMARK   80  A    between atoms: _193  and  _194
REMARK   81  A    between atoms: _193  and  _196
REMARK   82  A    between atoms: _196  and  _197
REMARK   83  A    between atoms: _197  and  _198
REMARK   84  A    between atoms: _198  and  _199
REMARK   85  A    between atoms: _199  and  _200
REMARK   86  A    between atoms: _204  and  _206
REMARK   87  A    between atoms: _206  and  _207
REMARK   88  A    between atoms: _206  and  _209
REMARK   89  A    between atoms: _209  and  _210
REMARK   90  A    between atoms: _213  and  _215
REMARK   91  A    between atoms: _215  and  _216
REMARK   92  A    between atoms: _215  and  _218
REMARK   93  A    between atoms: _218  and  _219
REMARK   94  A    between atoms: _219  and  _220
REMARK   95  A    between atoms: _223  and  _225
REMARK   96  A    between atoms: _225  and  _226
REMARK   97  A    between atoms: _225  and  _228
REMARK   98  A    between atoms: _228  and  _229
REMARK   99  A    between atoms: _239  and  _241
REMARK  100  A    between atoms: _241  and  _242
REMARK  101  A    between atoms: _241  and  _244
REMARK  102  A    between atoms: _244  and  _245
REMARK  103  A    between atoms: _245  and  _246
REMARK  104  A    between atoms: _246  and  _247
REMARK  105  A    between atoms: _256  and  _258
REMARK  106  A    between atoms: _258  and  _259
REMARK  107  A    between atoms: _258  and  _261
REMARK  108  A    between atoms: _261  and  _262
REMARK  109  A    between atoms: _265  and  _267
REMARK  110  A    between atoms: _267  and  _268
REMARK  111  A    between atoms: _267  and  _270
REMARK  112  A    between atoms: _270  and  _271
REMARK  113  A    between atoms: _281  and  _283
REMARK  114  A    between atoms: _283  and  _284
REMARK  115  A    between atoms: _283  and  _286
REMARK  116  A    between atoms: _286  and  _287
REMARK  117  A    between atoms: _293  and  _295
REMARK  118  A    between atoms: _295  and  _296
REMARK  119  A    between atoms: _295  and  _298
REMARK  120  A    between atoms: _298  and  _299
REMARK  121  A    between atoms: _302  and  _304
REMARK  122  A    between atoms: _304  and  _305
REMARK  123  A    between atoms: _304  and  _307
REMARK  124  A    between atoms: _307  and  _308
REMARK  125  A    between atoms: _311  and  _313
REMARK  126  A    between atoms: _313  and  _314
REMARK  127  A    between atoms: _313  and  _316
REMARK  128  A    between atoms: _316  and  _317
REMARK  129  A    between atoms: _322  and  _323
REMARK  130  A    between atoms: _325  and  _327
REMARK  131  A    between atoms: _327  and  _328
REMARK  132  A    between atoms: _327  and  _330
REMARK  133  A    between atoms: _330  and  _331
REMARK  134  A    between atoms: _331  and  _332
REMARK  135  A    between atoms: _335  and  _337
REMARK  136  A    between atoms: _337  and  _338
REMARK  137  A    between atoms: _337  and  _340
REMARK  138  A    between atoms: _340  and  _341
REMARK  139  A    between atoms: _341  and  _342
REMARK  140  A    between atoms: _342  and  _343
REMARK  141  A    between atoms: _343  and  _344
REMARK  142  A    between atoms: _348  and  _350
REMARK  143  A    between atoms: _350  and  _351
REMARK  144  A    between atoms: _350  and  _353
REMARK  145  A    between atoms: _353  and  _354
REMARK  146  A    between atoms: _358  and  _359
REMARK  147  A    between atoms: _364  and  _366
REMARK  148  A    between atoms: _366  and  _367
REMARK  149  A    between atoms: _366  and  _369
REMARK  150  A    between atoms: _372  and  _374
REMARK  151  A    between atoms: _374  and  _375
REMARK  152  A    between atoms: _374  and  _377
REMARK  153  A    between atoms: _377  and  _378
REMARK  154  A    between atoms: _381  and  _383
REMARK  155  A    between atoms: _383  and  _384
REMARK  156  A    between atoms: _383  and  _386
REMARK  157  A    between atoms: _386  and  _387
REMARK  158  A    between atoms: _392  and  _393
REMARK  159  A    between atoms: _395  and  _397
REMARK  160  A    between atoms: _397  and  _398
REMARK  161  A    between atoms: _397  and  _400
REMARK  162  A    between atoms: _400  and  _401
REMARK  163  A    between atoms: _401  and  _402
REMARK  164  A    between atoms: _404  and  _406
REMARK  165  A    between atoms: _406  and  _407
REMARK  166  A    between atoms: _406  and  _409
REMARK  167  A    between atoms: _409  and  _410
REMARK  168  A    between atoms: _415  and  _416
REMARK  169  A    between atoms: _418  and  _420
REMARK  170  A    between atoms: _420  and  _421
REMARK  171  A    between atoms: _420  and  _423
REMARK  172  A    between atoms: _423  and  _424
REMARK  173  A    between atoms: _424  and  _425
REMARK  174  A    between atoms: _430  and  _432
REMARK  175  A    between atoms: _432  and  _433
REMARK  176  A    between atoms: _432  and  _435
REMARK  177  A    between atoms: _435  and  _436
REMARK  178  A    between atoms: _439  and  _441
REMARK  179  A    between atoms: _441  and  _442
REMARK  180  A    between atoms: _441  and  _444
REMARK  181  A    between atoms: _444  and  _445
REMARK  182  A    between atoms: _448  and  _450
REMARK  183  A    between atoms: _450  and  _451
REMARK  184  A    between atoms: _450  and  _453
REMARK  185  A    between atoms: _453  and  _454
REMARK  186  A    between atoms: _457  and  _459
REMARK  187  A    between atoms: _459  and  _460
REMARK  188  A    between atoms: _459  and  _462
REMARK  189  A    between atoms: _462  and  _463
REMARK  190  A    between atoms: _466  and  _468
REMARK  191  A    between atoms: _468  and  _469
REMARK  192  A    between atoms: _468  and  _471
REMARK  193  A    between atoms: _471  and  _472
REMARK  194  A    between atoms: _477  and  _478
REMARK  195  A    between atoms: _480  and  _482
REMARK  196  A    between atoms: _482  and  _483
REMARK  197  A    between atoms: _482  and  _485
REMARK  198  A    between atoms: _485  and  _486
REMARK  199  A    between atoms: _486  and  _487
REMARK  200  A    between atoms: _490  and  _492
REMARK  201  A    between atoms: _492  and  _493
REMARK  202  A    between atoms: _495  and  _497
REMARK  203  A    between atoms: _497  and  _498
REMARK  204  A    between atoms: _497  and  _500
REMARK  205  A    between atoms: _500  and  _501
REMARK  206  A    between atoms: _504  and  _506
REMARK  207  A    between atoms: _506  and  _507
REMARK  208  A    between atoms: _506  and  _509
REMARK  209  A    between atoms: _509  and  _510
REMARK  210  A    between atoms: _513  and  _515
REMARK  211  A    between atoms: _515  and  _516
REMARK  212  A    between atoms: _515  and  _518
REMARK  213  A    between atoms: _518  and  _519
REMARK  214  A    between atoms: _519  and  _520
REMARK  215  A    between atoms: _520  and  _521
REMARK  216  A    between atoms: _530  and  _532
REMARK  217  A    between atoms: _532  and  _533
REMARK  218  A    between atoms: _532  and  _535
REMARK  219  A    between atoms: _535  and  _536
REMARK  220  A    between atoms: _539  and  _541
REMARK  221  A    between atoms: _541  and  _542
REMARK  222  A    between atoms: _541  and  _544
REMARK  223  A    between atoms: _544  and  _545
REMARK  224  A    between atoms: _551  and  _553
REMARK  225  A    between atoms: _553  and  _554
REMARK  226  A    between atoms: _553  and  _556
REMARK  227  A    between atoms: _556  and  _557
REMARK  228  A    between atoms: _562  and  _564
REMARK  229  A    between atoms: _564  and  _565
REMARK  230  A    between atoms: _564  and  _567
REMARK  231  A    between atoms: _567  and  _568
REMARK  232  A    between atoms: _571  and  _573
REMARK  233  A    between atoms: _573  and  _574
REMARK  234  A    between atoms: _573  and  _576
REMARK  235  A    between atoms: _576  and  _577
REMARK  236  A    between atoms: _582  and  _583
REMARK                            x       y       z     vdW  Elec       q    Type
REMARK                         _______ _______ _______ _____ _____    ______ ____
ROOT
ATOM      1  O   HOH     1      15.776   4.500   1.310  0.00  0.00    +0.000 OA
ENDROOT
TORSDOF 0
REMARK  Name = ../refined-set-2016/4h75/4h75_pocket.pdb
REMARK  236 active torsions:
REMARK  status: ('A' for Active; 'I' for Inactive)
REMARK    1  A    between atoms: _1  and  _3
REMARK    2  A    between atoms: _3  and  _4
REMARK    3  A    between atoms: _3  and  _6
REMARK    4  A    between atoms: _6  and  _7
REMARK    5  A    between atoms: _17  and  _19
REMARK    6  A    between atoms: _19  and  _20
REMARK    7  A    between atoms: _19  and  _22
REMARK    8  A    between atoms: _22  and  _23
REMARK    9  A    between atoms: _23  and  _24
REMARK   10  A    between atoms: _24  and  _25
REMARK   11  A    between atoms: _25  and  _26
REMARK   12  A    between atoms: _30  and  _32
REMARK   13  A    between atoms: _32  and  _33
REMARK   14  A    between atoms: _32  and  _35
REMARK   15  A    between atoms: _35  and  _36
REMARK   16  A    between atoms: _41  and  _42
REMARK   17  A    between atoms: _44  and  _46
REMARK   18  A    between atoms: _46  and  _47
REMARK   19  A    between atoms: _46  and  _49
REMARK   20  A    between atoms: _49  and  _50
REMARK   21  A    between atoms: _53  and  _55
REMARK   22  A    between atoms: _55  and  _56
REMARK   23  A    between atoms: _58  and  _60
REMARK   24  A    between atoms: _60  and  _61
REMARK   25  A    between atoms: _60  and  _63
REMARK   26  A    between atoms: _63  and  _64
REMARK   27  A    between atoms: _70  and  _72
REMARK   28  A    between atoms: _72  and  _73
REMARK   29  A    between atoms: _72  and  _75
REMARK   30  A    between atoms: _75  and  _76
REMARK   31  A    between atoms: _79  and  _81
REMARK   32  A    between atoms: _81  and  _82
REMARK   33  A    between atoms: _81  and  _84
REMARK   34  A    between atoms: _86  and  _88
REMARK   35  A    between atoms: _88  and  _89
REMARK   36  A    between atoms: _88  and  _91
REMARK   37  A    between atoms: _94  and  _96
REMARK   38  A    between atoms: _96  and  _97
REMARK   39  A    between atoms: _96  and  _99
REMARK   40  A    between atoms: _99  and  _100
REMARK   41  A    between atoms: _105  and  _106
REMARK   42  A    between atoms: _108  and  _110
REMARK   43  A    between atoms: _110  and  _111
REMARK   44  A    between atoms: _110  and  _113
REMARK   45  A    between atoms: _113  and  _114
REMARK   46  A    between atoms: _119  and  _121
REMARK   47  A    between atoms: _121  and  _122
REMARK   48  A    between atoms: _121  and  _124
REMARK   49  A    between atoms: _124  and  _125
REMARK   50  A    between atoms: _125  and  _126
REMARK   51  A    between atoms: _128  and  _130
REMARK   52  A    between atoms: _130  and  _131
REMARK   53  A    between atoms: _130  and  _133
REMARK   54  A    between atoms: _133  and  _134
REMARK   55  A    between atoms: _140  and  _142
REMARK   56  A    between atoms: _142  and  _143
REMARK   57  A    between atoms: _142  and  _145
REMARK   58  A    between atoms: _145  and  _146
REMARK   59  A    between atoms: _146  and  _147
REMARK   60  A    between atoms: _150  and  _152
REMARK   61  A    between atoms: _152  and  _153
REMARK   62  A    between atoms: _152  and  _155
REMARK   63  A    between atoms: _155  and  _156
REMARK   64  A    between atoms: _159  and  _161
REMARK   65  A    between atoms: _161  and  _162
REMARK   66  A    between atoms: _161  and  _164
REMARK   67  A    between atoms: _164  and  _165
REMARK   68  A    between atoms: _165  and  _166
REMARK   69  A    between atoms: _169  and  _171
REMARK   70  A    between atoms: _171  and  _172
REMARK   71  A    between atoms: _171  and  _174
REMARK   72  A    between atoms: _174  and  _175
REMARK   73  A    between atoms: _178  and  _180
REMARK   74  A    between atoms: _180  and  _181
REMARK   75  A    between atoms: _183  and  _185
REMARK   76  A    between atoms: _185  and  _186
REMARK   77  A    between atoms: _185  and  _188
REMARK   78  A    between atoms: _188  and  _189
REMARK   79  A    between atoms: _191  and  _193
REMARK   80  A    between atoms: _193  and  _194
REMARK   81  A    between atoms: _193  and  _196
REMARK   82  A    between atoms: _196  and  _197
REMARK   83  A    between atoms: _197  and  _198
REMARK   84  A    between atoms: _198  and  _199
REMARK   85  A    between atoms: _199  and  _200
REMARK   86  A    between atoms: _204  and  _206
REMARK   87  A    between atoms: _206  and  _207
REMARK   88  A    between atoms: _206  and  _209
REMARK   89  A    between atoms: _209  and  _210
REMARK   90  A    between atoms: _213  and  _215
REMARK   91  A    between atoms: _215  and  _216
REMARK   92  A    between atoms: _215  and  _218
REMARK   93  A    between atoms: _218  and  _219
REMARK   94  A    between atoms: _219  and  _220
REMARK   95  A    between atoms: _223  and  _225
REMARK   96  A    between atoms: _225  and  _226
REMARK   97  A    between atoms: _225  and  _228
REMARK   98  A    between atoms: _228  and  _229
REMARK   99  A    between atoms: _239  and  _241
REMARK  100  A    between atoms: _241  and  _242
REMARK  101  A    between atoms: _241  and  _244
REMARK  102  A    between atoms: _244  and  _245
REMARK  103  A    between atoms: _245  and  _246
REMARK  104  A    between atoms: _246  and  _247
REMARK  105  A    between atoms: _256  and  _258
REMARK  106  A    between atoms: _258  and  _259
REMARK  107  A    between atoms: _258  and  _261
REMARK  108  A    between atoms: _261  and  _262
REMARK  109  A    between atoms: _265  and  _267
REMARK  110  A    between atoms: _267  and  _268
REMARK  111  A    between atoms: _267  and  _270
REMARK  112  A    between atoms: _270  and  _271
REMARK  113  A    between atoms: _281  and  _283
REMARK  114  A    between atoms: _283  and  _284
REMARK  115  A    between atoms: _283  and  _286
REMARK  116  A    between atoms: _286  and  _287
REMARK  117  A    between atoms: _293  and  _295
REMARK  118  A    between atoms: _295  and  _296
REMARK  119  A    between atoms: _295  and  _298
REMARK  120  A    between atoms: _298  and  _299
REMARK  121  A    between atoms: _302  and  _304
REMARK  122  A    between atoms: _304  and  _305
REMARK  123  A    between atoms: _304  and  _307
REMARK  124  A    between atoms: _307  and  _308
REMARK  125  A    between atoms: _311  and  _313
REMARK  126  A    between atoms: _313  and  _314
REMARK  127  A    between atoms: _313  and  _316
REMARK  128  A    between atoms: _316  and  _317
REMARK  129  A    between atoms: _322  and  _323
REMARK  130  A    between atoms: _325  and  _327
REMARK  131  A    between atoms: _327  and  _328
REMARK  132  A    between atoms: _327  and  _330
REMARK  133  A    between atoms: _330  and  _331
REMARK  134  A    between atoms: _331  and  _332
REMARK  135  A    between atoms: _335  and  _337
REMARK  136  A    between atoms: _337  and  _338
REMARK  137  A    between atoms: _337  and  _340
REMARK  138  A    between atoms: _340  and  _341
REMARK  139  A    between atoms: _341  and  _342
REMARK  140  A    between atoms: _342  and  _343
REMARK  141  A    between atoms: _343  and  _344
REMARK  142  A    between atoms: _348  and  _350
REMARK  143  A    between atoms: _350  and  _351
REMARK  144  A    between atoms: _350  and  _353
REMARK  145  A    between atoms: _353  and  _354
REMARK  146  A    between atoms: _358  and  _359
REMARK  147  A    between atoms: _364  and  _366
REMARK  148  A    between atoms: _366  and  _367
REMARK  149  A    between atoms: _366  and  _369
REMARK  150  A    between atoms: _372  and  _374
REMARK  151  A    between atoms: _374  and  _375
REMARK  152  A    between atoms: _374  and  _377
REMARK  153  A    between atoms: _377  and  _378
REMARK  154  A    between atoms: _381  and  _383
REMARK  155  A    between atoms: _383  and  _384
REMARK  156  A    between atoms: _383  and  _386
REMARK  157  A    between atoms: _386  and  _387
REMARK  158  A    between atoms: _392  and  _393
REMARK  159  A    between atoms: _395  and  _397
REMARK  160  A    between atoms: _397  and  _398
REMARK  161  A    between atoms: _397  and  _400
REMARK  162  A    between atoms: _400  and  _401
REMARK  163  A    between atoms: _401  and  _402
REMARK  164  A    between atoms: _404  and  _406
REMARK  165  A    between atoms: _406  and  _407
REMARK  166  A    between atoms: _406  and  _409
REMARK  167  A    between atoms: _409  and  _410
REMARK  168  A    between atoms: _415  and  _416
REMARK  169  A    between atoms: _418  and  _420
REMARK  170  A    between atoms: _420  and  _421
REMARK  171  A    between atoms: _420  and  _423
REMARK  172  A    between atoms: _423  and  _424
REMARK  173  A    between atoms: _424  and  _425
REMARK  174  A    between atoms: _430  and  _432
REMARK  175  A    between atoms: _432  and  _433
REMARK  176  A    between atoms: _432  and  _435
REMARK  177  A    between atoms: _435  and  _436
REMARK  178  A    between atoms: _439  and  _441
REMARK  179  A    between atoms: _441  and  _442
REMARK  180  A    between atoms: _441  and  _444
REMARK  181  A    between atoms: _444  and  _445
REMARK  182  A    between atoms: _448  and  _450
REMARK  183  A    between atoms: _450  and  _451
REMARK  184  A    between atoms: _450  and  _453
REMARK  185  A    between atoms: _453  and  _454
REMARK  186  A    between atoms: _457  and  _459
REMARK  187  A    between atoms: _459  and  _460
REMARK  188  A    between atoms: _459  and  _462
REMARK  189  A    between atoms: _462  and  _463
REMARK  190  A    between atoms: _466  and  _468
REMARK  191  A    between atoms: _468  and  _469
REMARK  192  A    between atoms: _468  and  _471
REMARK  193  A    between atoms: _471  and  _472
REMARK  194  A    between atoms: _477  and  _478
REMARK  195  A    between atoms: _480  and  _482
REMARK  196  A    between atoms: _482  and  _483
REMARK  197  A    between atoms: _482  and  _485
REMARK  198  A    between atoms: _485  and  _486
REMARK  199  A    between atoms: _486  and  _487
REMARK  200  A    between atoms: _490  and  _492
REMARK  201  A    between atoms: _492  and  _493
REMARK  202  A    between atoms: _495  and  _497
REMARK  203  A    between atoms: _497  and  _498
REMARK  204  A    between atoms: _497  and  _500
REMARK  205  A    between atoms: _500  and  _501
REMARK  206  A    between atoms: _504  and  _506
REMARK  207  A    between atoms: _506  and  _507
REMARK  208  A    between atoms: _506  and  _509
REMARK  209  A    between atoms: _509  and  _510
REMARK  210  A    between atoms: _513  and  _515
REMARK  211  A    between atoms: _515  and  _516
REMARK  212  A    between atoms: _515  and  _518
REMARK  213  A    between atoms: _518  and  _519
REMARK  214  A    between atoms: _519  and  _520
REMARK  215  A    between atoms: _520  and  _521
REMARK  216  A    between atoms: _530  and  _532
REMARK  217  A    between atoms: _532  and  _533
REMARK  218  A    between atoms: _532  and  _535
REMARK  219  A    between atoms: _535  and  _536
REMARK  220  A    between atoms: _539  and  _541
REMARK  221  A    between atoms: _541  and  _542
REMARK  222  A    between atoms: _541  and  _544
REMARK  223  A    between atoms: _544  and  _545
REMARK  224  A    between atoms: _551  and  _553
REMARK  225  A    between atoms: _553  and  _554
REMARK  226  A    between atoms: _553  and  _556
REMARK  227  A    between atoms: _556  and  _557
REMARK  228  A    between atoms: _562  and  _564
REMARK  229  A    between atoms: _564  and  _565
REMARK  230  A    between atoms: _564  and  _567
REMARK  231  A    between atoms: _567  and  _568
REMARK  232  A    between atoms: _571  and  _573
REMARK  233  A    between atoms: _573  and  _574
REMARK  234  A    between atoms: _573  and  _576
REMARK  235  A    between atoms: _576  and  _577
REMARK  236  A    between atoms: _582  and  _583
REMARK                            x       y       z     vdW  Elec       q    Type
REMARK                         _______ _______ _______ _____ _____    ______ ____
ROOT
ATOM      1  O   HOH     1       8.259   9.963  -1.440  0.00  0.00    +0.000 OA
ENDROOT
TORSDOF 0
REMARK  Name = ../refined-set-2016/4h75/4h75_pocket.pdb
REMARK  236 active torsions:
REMARK  status: ('A' for Active; 'I' for Inactive)
REMARK    1  A    between atoms: _1  and  _3
REMARK    2  A    between atoms: _3  and  _4
REMARK    3  A    between atoms: _3  and  _6
REMARK    4  A    between atoms: _6  and  _7
REMARK    5  A    between atoms: _17  and  _19
REMARK    6  A    between atoms: _19  and  _20
REMARK    7  A    between atoms: _19  and  _22
REMARK    8  A    between atoms: _22  and  _23
REMARK    9  A    between atoms: _23  and  _24
REMARK   10  A    between atoms: _24  and  _25
REMARK   11  A    between atoms: _25  and  _26
REMARK   12  A    between atoms: _30  and  _32
REMARK   13  A    between atoms: _32  and  _33
REMARK   14  A    between atoms: _32  and  _35
REMARK   15  A    between atoms: _35  and  _36
REMARK   16  A    between atoms: _41  and  _42
REMARK   17  A    between atoms: _44  and  _46
REMARK   18  A    between atoms: _46  and  _47
REMARK   19  A    between atoms: _46  and  _49
REMARK   20  A    between atoms: _49  and  _50
REMARK   21  A    between atoms: _53  and  _55
REMARK   22  A    between atoms: _55  and  _56
REMARK   23  A    between atoms: _58  and  _60
REMARK   24  A    between atoms: _60  and  _61
REMARK   25  A    between atoms: _60  and  _63
REMARK   26  A    between atoms: _63  and  _64
REMARK   27  A    between atoms: _70  and  _72
REMARK   28  A    between atoms: _72  and  _73
REMARK   29  A    between atoms: _72  and  _75
REMARK   30  A    between atoms: _75  and  _76
REMARK   31  A    between atoms: _79  and  _81
REMARK   32  A    between atoms: _81  and  _82
REMARK   33  A    between atoms: _81  and  _84
REMARK   34  A    between atoms: _86  and  _88
REMARK   35  A    between atoms: _88  and  _89
REMARK   36  A    between atoms: _88  and  _91
REMARK   37  A    between atoms: _94  and  _96
REMARK   38  A    between atoms: _96  and  _97
REMARK   39  A    between atoms: _96  and  _99
REMARK   40  A    between atoms: _99  and  _100
REMARK   41  A    between atoms: _105  and  _106
REMARK   42  A    between atoms: _108  and  _110
REMARK   43  A    between atoms: _110  and  _111
REMARK   44  A    between atoms: _110  and  _113
REMARK   45  A    between atoms: _113  and  _114
REMARK   46  A    between atoms: _119  and  _121
REMARK   47  A    between atoms: _121  and  _122
REMARK   48  A    between atoms: _121  and  _124
REMARK   49  A    between atoms: _124  and  _125
REMARK   50  A    between atoms: _125  and  _126
REMARK   51  A    between atoms: _128  and  _130
REMARK   52  A    between atoms: _130  and  _131
REMARK   53  A    between atoms: _130  and  _133
REMARK   54  A    between atoms: _133  and  _134
REMARK   55  A    between atoms: _140  and  _142
REMARK   56  A    between atoms: _142  and  _143
REMARK   57  A    between atoms: _142  and  _145
REMARK   58  A    between atoms: _145  and  _146
REMARK   59  A    between atoms: _146  and  _147
REMARK   60  A    between atoms: _150  and  _152
REMARK   61  A    between atoms: _152  and  _153
REMARK   62  A    between atoms: _152  and  _155
REMARK   63  A    between atoms: _155  and  _156
REMARK   64  A    between atoms: _159  and  _161
REMARK   65  A    between atoms: _161  and  _162
REMARK   66  A    between atoms: _161  and  _164
REMARK   67  A    between atoms: _164  and  _165
REMARK   68  A    between atoms: _165  and  _166
REMARK   69  A    between atoms: _169  and  _171
REMARK   70  A    between atoms: _171  and  _172
REMARK   71  A    between atoms: _171  and  _174
REMARK   72  A    between atoms: _174  and  _175
REMARK   73  A    between atoms: _178  and  _180
REMARK   74  A    between atoms: _180  and  _181
REMARK   75  A    between atoms: _183  and  _185
REMARK   76  A    between atoms: _185  and  _186
REMARK   77  A    between atoms: _185  and  _188
REMARK   78  A    between atoms: _188  and  _189
REMARK   79  A    between atoms: _191  and  _193
REMARK   80  A    between atoms: _193  and  _194
REMARK   81  A    between atoms: _193  and  _196
REMARK   82  A    between atoms: _196  and  _197
REMARK   83  A    between atoms: _197  and  _198
REMARK   84  A    between atoms: _198  and  _199
REMARK   85  A    between atoms: _199  and  _200
REMARK   86  A    between atoms: _204  and  _206
REMARK   87  A    between atoms: _206  and  _207
REMARK   88  A    between atoms: _206  and  _209
REMARK   89  A    between atoms: _209  and  _210
REMARK   90  A    between atoms: _213  and  _215
REMARK   91  A    between atoms: _215  and  _216
REMARK   92  A    between atoms: _215  and  _218
REMARK   93  A    between atoms: _218  and  _219
REMARK   94  A    between atoms: _219  and  _220
REMARK   95  A    between atoms: _223  and  _225
REMARK   96  A    between atoms: _225  and  _226
REMARK   97  A    between atoms: _225  and  _228
REMARK   98  A    between atoms: _228  and  _229
REMARK   99  A    between atoms: _239  and  _241
REMARK  100  A    between atoms: _241  and  _242
REMARK  101  A    between atoms: _241  and  _244
REMARK  102  A    between atoms: _244  and  _245
REMARK  103  A    between atoms: _245  and  _246
REMARK  104  A    between atoms: _246  and  _247
REMARK  105  A    between atoms: _256  and  _258
REMARK  106  A    between atoms: _258  and  _259
REMARK  107  A    between atoms: _258  and  _261
REMARK  108  A    between atoms: _261  and  _262
REMARK  109  A    between atoms: _265  and  _267
REMARK  110  A    between atoms: _267  and  _268
REMARK  111  A    between atoms: _267  and  _270
REMARK  112  A    between atoms: _270  and  _271
REMARK  113  A    between atoms: _281  and  _283
REMARK  114  A    between atoms: _283  and  _284
REMARK  115  A    between atoms: _283  and  _286
REMARK  116  A    between atoms: _286  and  _287
REMARK  117  A    between atoms: _293  and  _295
REMARK  118  A    between atoms: _295  and  _296
REMARK  119  A    between atoms: _295  and  _298
REMARK  120  A    between atoms: _298  and  _299
REMARK  121  A    between atoms: _302  and  _304
REMARK  122  A    between atoms: _304  and  _305
REMARK  123  A    between atoms: _304  and  _307
REMARK  124  A    between atoms: _307  and  _308
REMARK  125  A    between atoms: _311  and  _313
REMARK  126  A    between atoms: _313  and  _314
REMARK  127  A    between atoms: _313  and  _316
REMARK  128  A    between atoms: _316  and  _317
REMARK  129  A    between atoms: _322  and  _323
REMARK  130  A    between atoms: _325  and  _327
REMARK  131  A    between atoms: _327  and  _328
REMARK  132  A    between atoms: _327  and  _330
REMARK  133  A    between atoms: _330  and  _331
REMARK  134  A    between atoms: _331  and  _332
REMARK  135  A    between atoms: _335  and  _337
REMARK  136  A    between atoms: _337  and  _338
REMARK  137  A    between atoms: _337  and  _340
REMARK  138  A    between atoms: _340  and  _341
REMARK  139  A    between atoms: _341  and  _342
REMARK  140  A    between atoms: _342  and  _343
REMARK  141  A    between atoms: _343  and  _344
REMARK  142  A    between atoms: _348  and  _350
REMARK  143  A    between atoms: _350  and  _351
REMARK  144  A    between atoms: _350  and  _353
REMARK  145  A    between atoms: _353  and  _354
REMARK  146  A    between atoms: _358  and  _359
REMARK  147  A    between atoms: _364  and  _366
REMARK  148  A    between atoms: _366  and  _367
REMARK  149  A    between atoms: _366  and  _369
REMARK  150  A    between atoms: _372  and  _374
REMARK  151  A    between atoms: _374  and  _375
REMARK  152  A    between atoms: _374  and  _377
REMARK  153  A    between atoms: _377  and  _378
REMARK  154  A    between atoms: _381  and  _383
REMARK  155  A    between atoms: _383  and  _384
REMARK  156  A    between atoms: _383  and  _386
REMARK  157  A    between atoms: _386  and  _387
REMARK  158  A    between atoms: _392  and  _393
REMARK  159  A    between atoms: _395  and  _397
REMARK  160  A    between atoms: _397  and  _398
REMARK  161  A    between atoms: _397  and  _400
REMARK  162  A    between atoms: _400  and  _401
REMARK  163  A    between atoms: _401  and  _402
REMARK  164  A    between atoms: _404  and  _406
REMARK  165  A    between atoms: _406  and  _407
REMARK  166  A    between atoms: _406  and  _409
REMARK  167  A    between atoms: _409  and  _410
REMARK  168  A    between atoms: _415  and  _416
REMARK  169  A    between atoms: _418  and  _420
REMARK  170  A    between atoms: _420  and  _421
REMARK  171  A    between atoms: _420  and  _423
REMARK  172  A    between atoms: _423  and  _424
REMARK  173  A    between atoms: _424  and  _425
REMARK  174  A    between atoms: _430  and  _432
REMARK  175  A    between atoms: _432  and  _433
REMARK  176  A    between atoms: _432  and  _435
REMARK  177  A    between atoms: _435  and  _436
REMARK  178  A    between atoms: _439  and  _441
REMARK  179  A    between atoms: _441  and  _442
REMARK  180  A    between atoms: _441  and  _444
REMARK  181  A    between atoms: _444  and  _445
REMARK  182  A    between atoms: _448  and  _450
REMARK  183  A    between atoms: _450  and  _451
REMARK  184  A    between atoms: _450  and  _453
REMARK  185  A    between atoms: _453  and  _454
REMARK  186  A    between atoms: _457  and  _459
REMARK  187  A    between atoms: _459  and  _460
REMARK  188  A    between atoms: _459  and  _462
REMARK  189  A    between atoms: _462  and  _463
REMARK  190  A    between atoms: _466  and  _468
REMARK  191  A    between atoms: _468  and  _469
REMARK  192  A    between atoms: _468  and  _471
REMARK  193  A    between atoms: _471  and  _472
REMARK  194  A    between atoms: _477  and  _478
REMARK  195  A    between atoms: _480  and  _482
REMARK  196  A    between atoms: _482  and  _483
REMARK  197  A    between atoms: _482  and  _485
REMARK  198  A    between atoms: _485  and  _486
REMARK  199  A    between atoms: _486  and  _487
REMARK  200  A    between atoms: _490  and  _492
REMARK  201  A    between atoms: _492  and  _493
REMARK  202  A    between atoms: _495  and  _497
REMARK  203  A    between atoms: _497  and  _498
REMARK  204  A    between atoms: _497  and  _500
REMARK  205  A    between atoms: _500  and  _501
REMARK  206  A    between atoms: _504  and  _506
REMARK  207  A    between atoms: _506  and  _507
REMARK  208  A    between atoms: _506  and  _509
REMARK  209  A    between atoms: _509  and  _510
REMARK  210  A    between atoms: _513  and  _515
REMARK  211  A    between atoms: _515  and  _516
REMARK  212  A    between atoms: _515  and  _518
REMARK  213  A    between atoms: _518  and  _519
REMARK  214  A    between atoms: _519  and  _520
REMARK  215  A    between atoms: _520  and  _521
REMARK  216  A    between atoms: _530  and  _532
REMARK  217  A    between atoms: _532  and  _533
REMARK  218  A    between atoms: _532  and  _535
REMARK  219  A    between atoms: _535  and  _536
REMARK  220  A    between atoms: _539  and  _541
REMARK  221  A    between atoms: _541  and  _542
REMARK  222  A    between atoms: _541  and  _544
REMARK  223  A    between atoms: _544  and  _545
REMARK  224  A    between atoms: _551  and  _553
REMARK  225  A    between atoms: _553  and  _554
REMARK  226  A    between atoms: _553  and  _556
REMARK  227  A    between atoms: _556  and  _557
REMARK  228  A    between atoms: _562  and  _564
REMARK  229  A    between atoms: _564  and  _565
REMARK  230  A    between atoms: _564  and  _567
REMARK  231  A    between atoms: _567  and  _568
REMARK  232  A    between atoms: _571  and  _573
REMARK  233  A    between atoms: _573  and  _574
REMARK  234  A    between atoms: _573  and  _576
REMARK  235  A    between atoms: _576  and  _577
REMARK  236  A    between atoms: _582  and  _583
REMARK                            x       y       z     vdW  Elec       q    Type
REMARK                         _______ _______ _______ _____ _____    ______ ____
ROOT
ATOM      1  O   HOH     1       7.537   0.752   8.212  0.00  0.00    +0.000 OA
ENDROOT
TORSDOF 0
REMARK  Name = ../refined-set-2016/4h75/4h75_pocket.pdb
REMARK  236 active torsions:
REMARK  status: ('A' for Active; 'I' for Inactive)
REMARK    1  A    between atoms: _1  and  _3
REMARK    2  A    between atoms: _3  and  _4
REMARK    3  A    between atoms: _3  and  _6
REMARK    4  A    between atoms: _6  and  _7
REMARK    5  A    between atoms: _17  and  _19
REMARK    6  A    between atoms: _19  and  _20
REMARK    7  A    between atoms: _19  and  _22
REMARK    8  A    between atoms: _22  and  _23
REMARK    9  A    between atoms: _23  and  _24
REMARK   10  A    between atoms: _24  and  _25
REMARK   11  A    between atoms: _25  and  _26
REMARK   12  A    between atoms: _30  and  _32
REMARK   13  A    between atoms: _32  and  _33
REMARK   14  A    between atoms: _32  and  _35
REMARK   15  A    between atoms: _35  and  _36
REMARK   16  A    between atoms: _41  and  _42
REMARK   17  A    between atoms: _44  and  _46
REMARK   18  A    between atoms: _46  and  _47
REMARK   19  A    between atoms: _46  and  _49
REMARK   20  A    between atoms: _49  and  _50
REMARK   21  A    between atoms: _53  and  _55
REMARK   22  A    between atoms: _55  and  _56
REMARK   23  A    between atoms: _58  and  _60
REMARK   24  A    between atoms: _60  and  _61
REMARK   25  A    between atoms: _60  and  _63
REMARK   26  A    between atoms: _63  and  _64
REMARK   27  A    between atoms: _70  and  _72
REMARK   28  A    between atoms: _72  and  _73
REMARK   29  A    between atoms: _72  and  _75
REMARK   30  A    between atoms: _75  and  _76
REMARK   31  A    between atoms: _79  and  _81
REMARK   32  A    between atoms: _81  and  _82
REMARK   33  A    between atoms: _81  and  _84
REMARK   34  A    between atoms: _86  and  _88
REMARK   35  A    between atoms: _88  and  _89
REMARK   36  A    between atoms: _88  and  _91
REMARK   37  A    between atoms: _94  and  _96
REMARK   38  A    between atoms: _96  and  _97
REMARK   39  A    between atoms: _96  and  _99
REMARK   40  A    between atoms: _99  and  _100
REMARK   41  A    between atoms: _105  and  _106
REMARK   42  A    between atoms: _108  and  _110
REMARK   43  A    between atoms: _110  and  _111
REMARK   44  A    between atoms: _110  and  _113
REMARK   45  A    between atoms: _113  and  _114
REMARK   46  A    between atoms: _119  and  _121
REMARK   47  A    between atoms: _121  and  _122
REMARK   48  A    between atoms: _121  and  _124
REMARK   49  A    between atoms: _124  and  _125
REMARK   50  A    between atoms: _125  and  _126
REMARK   51  A    between atoms: _128  and  _130
REMARK   52  A    between atoms: _130  and  _131
REMARK   53  A    between atoms: _130  and  _133
REMARK   54  A    between atoms: _133  and  _134
REMARK   55  A    between atoms: _140  and  _142
REMARK   56  A    between atoms: _142  and  _143
REMARK   57  A    between atoms: _142  and  _145
REMARK   58  A    between atoms: _145  and  _146
REMARK   59  A    between atoms: _146  and  _147
REMARK   60  A    between atoms: _150  and  _152
REMARK   61  A    between atoms: _152  and  _153
REMARK   62  A    between atoms: _152  and  _155
REMARK   63  A    between atoms: _155  and  _156
REMARK   64  A    between atoms: _159  and  _161
REMARK   65  A    between atoms: _161  and  _162
REMARK   66  A    between atoms: _161  and  _164
REMARK   67  A    between atoms: _164  and  _165
REMARK   68  A    between atoms: _165  and  _166
REMARK   69  A    between atoms: _169  and  _171
REMARK   70  A    between atoms: _171  and  _172
REMARK   71  A    between atoms: _171  and  _174
REMARK   72  A    between atoms: _174  and  _175
REMARK   73  A    between atoms: _178  and  _180
REMARK   74  A    between atoms: _180  and  _181
REMARK   75  A    between atoms: _183  and  _185
REMARK   76  A    between atoms: _185  and  _186
REMARK   77  A    between atoms: _185  and  _188
REMARK   78  A    between atoms: _188  and  _189
REMARK   79  A    between atoms: _191  and  _193
REMARK   80  A    between atoms: _193  and  _194
REMARK   81  A    between atoms: _193  and  _196
REMARK   82  A    between atoms: _196  and  _197
REMARK   83  A    between atoms: _197  and  _198
REMARK   84  A    between atoms: _198  and  _199
REMARK   85  A    between atoms: _199  and  _200
REMARK   86  A    between atoms: _204  and  _206
REMARK   87  A    between atoms: _206  and  _207
REMARK   88  A    between atoms: _206  and  _209
REMARK   89  A    between atoms: _209  and  _210
REMARK   90  A    between atoms: _213  and  _215
REMARK   91  A    between atoms: _215  and  _216
REMARK   92  A    between atoms: _215  and  _218
REMARK   93  A    between atoms: _218  and  _219
REMARK   94  A    between atoms: _219  and  _220
REMARK   95  A    between atoms: _223  and  _225
REMARK   96  A    between atoms: _225  and  _226
REMARK   97  A    between atoms: _225  and  _228
REMARK   98  A    between atoms: _228  and  _229
REMARK   99  A    between atoms: _239  and  _241
REMARK  100  A    between atoms: _241  and  _242
REMARK  101  A    between atoms: _241  and  _244
REMARK  102  A    between atoms: _244  and  _245
REMARK  103  A    between atoms: _245  and  _246
REMARK  104  A    between atoms: _246  and  _247
REMARK  105  A    between atoms: _256  and  _258
REMARK  106  A    between atoms: _258  and  _259
REMARK  107  A    between atoms: _258  and  _261
REMARK  108  A    between atoms: _261  and  _262
REMARK  109  A    between atoms: _265  and  _267
REMARK  110  A    between atoms: _267  and  _268
REMARK  111  A    between atoms: _267  and  _270
REMARK  112  A    between atoms: _270  and  _271
REMARK  113  A    between atoms: _281  and  _283
REMARK  114  A    between atoms: _283  and  _284
REMARK  115  A    between atoms: _283  and  _286
REMARK  116  A    between atoms: _286  and  _287
REMARK  117  A    between atoms: _293  and  _295
REMARK  118  A    between atoms: _295  and  _296
REMARK  119  A    between atoms: _295  and  _298
REMARK  120  A    between atoms: _298  and  _299
REMARK  121  A    between atoms: _302  and  _304
REMARK  122  A    between atoms: _304  and  _305
REMARK  123  A    between atoms: _304  and  _307
REMARK  124  A    between atoms: _307  and  _308
REMARK  125  A    between atoms: _311  and  _313
REMARK  126  A    between atoms: _313  and  _314
REMARK  127  A    between atoms: _313  and  _316
REMARK  128  A    between atoms: _316  and  _317
REMARK  129  A    between atoms: _322  and  _323
REMARK  130  A    between atoms: _325  and  _327
REMARK  131  A    between atoms: _327  and  _328
REMARK  132  A    between atoms: _327  and  _330
REMARK  133  A    between atoms: _330  and  _331
REMARK  134  A    between atoms: _331  and  _332
REMARK  135  A    between atoms: _335  and  _337
REMARK  136  A    between atoms: _337  and  _338
REMARK  137  A    between atoms: _337  and  _340
REMARK  138  A    between atoms: _340  and  _341
REMARK  139  A    between atoms: _341  and  _342
REMARK  140  A    between atoms: _342  and  _343
REMARK  141  A    between atoms: _343  and  _344
REMARK  142  A    between atoms: _348  and  _350
REMARK  143  A    between atoms: _350  and  _351
REMARK  144  A    between atoms: _350  and  _353
REMARK  145  A    between atoms: _353  and  _354
REMARK  146  A    between atoms: _358  and  _359
REMARK  147  A    between atoms: _364  and  _366
REMARK  148  A    between atoms: _366  and  _367
REMARK  149  A    between atoms: _366  and  _369
REMARK  150  A    between atoms: _372  and  _374
REMARK  151  A    between atoms: _374  and  _375
REMARK  152  A    between atoms: _374  and  _377
REMARK  153  A    between atoms: _377  and  _378
REMARK  154  A    between atoms: _381  and  _383
REMARK  155  A    between atoms: _383  and  _384
REMARK  156  A    between atoms: _383  and  _386
REMARK  157  A    between atoms: _386  and  _387
REMARK  158  A    between atoms: _392  and  _393
REMARK  159  A    between atoms: _395  and  _397
REMARK  160  A    between atoms: _397  and  _398
REMARK  161  A    between atoms: _397  and  _400
REMARK  162  A    between atoms: _400  and  _401
REMARK  163  A    between atoms: _401  and  _402
REMARK  164  A    between atoms: _404  and  _406
REMARK  165  A    between atoms: _406  and  _407
REMARK  166  A    between atoms: _406  and  _409
REMARK  167  A    between atoms: _409  and  _410
REMARK  168  A    between atoms: _415  and  _416
REMARK  169  A    between atoms: _418  and  _420
REMARK  170  A    between atoms: _420  and  _421
REMARK  171  A    between atoms: _420  and  _423
REMARK  172  A    between atoms: _423  and  _424
REMARK  173  A    between atoms: _424  and  _425
REMARK  174  A    between atoms: _430  and  _432
REMARK  175  A    between atoms: _432  and  _433
REMARK  176  A    between atoms: _432  and  _435
REMARK  177  A    between atoms: _435  and  _436
REMARK  178  A    between atoms: _439  and  _441
REMARK  179  A    between atoms: _441  and  _442
REMARK  180  A    between atoms: _441  and  _444
REMARK  181  A    between atoms: _444  and  _445
REMARK  182  A    between atoms: _448  and  _450
REMARK  183  A    between atoms: _450  and  _451
REMARK  184  A    between atoms: _450  and  _453
REMARK  185  A    between atoms: _453  and  _454
REMARK  186  A    between atoms: _457  and  _459
REMARK  187  A    between atoms: _459  and  _460
REMARK  188  A    between atoms: _459  and  _462
REMARK  189  A    between atoms: _462  and  _463
REMARK  190  A    between atoms: _466  and  _468
REMARK  191  A    between atoms: _468  and  _469
REMARK  192  A    between atoms: _468  and  _471
REMARK  193  A    between atoms: _471  and  _472
REMARK  194  A    between atoms: _477  and  _478
REMARK  195  A    between atoms: _480  and  _482
REMARK  196  A    between atoms: _482  and  _483
REMARK  197  A    between atoms: _482  and  _485
REMARK  198  A    between atoms: _485  and  _486
REMARK  199  A    between atoms: _486  and  _487
REMARK  200  A    between atoms: _490  and  _492
REMARK  201  A    between atoms: _492  and  _493
REMARK  202  A    between atoms: _495  and  _497
REMARK  203  A    between atoms: _497  and  _498
REMARK  204  A    between atoms: _497  and  _500
REMARK  205  A    between atoms: _500  and  _501
REMARK  206  A    between atoms: _504  and  _506
REMARK  207  A    between atoms: _506  and  _507
REMARK  208  A    between atoms: _506  and  _509
REMARK  209  A    between atoms: _509  and  _510
REMARK  210  A    between atoms: _513  and  _515
REMARK  211  A    between atoms: _515  and  _516
REMARK  212  A    between atoms: _515  and  _518
REMARK  213  A    between atoms: _518  and  _519
REMARK  214  A    between atoms: _519  and  _520
REMARK  215  A    between atoms: _520  and  _521
REMARK  216  A    between atoms: _530  and  _532
REMARK  217  A    between atoms: _532  and  _533
REMARK  218  A    between atoms: _532  and  _535
REMARK  219  A    between atoms: _535  and  _536
REMARK  220  A    between atoms: _539  and  _541
REMARK  221  A    between atoms: _541  and  _542
REMARK  222  A    between atoms: _541  and  _544
REMARK  223  A    between atoms: _544  and  _545
REMARK  224  A    between atoms: _551  and  _553
REMARK  225  A    between atoms: _553  and  _554
REMARK  226  A    between atoms: _553  and  _556
REMARK  227  A    between atoms: _556  and  _557
REMARK  228  A    between atoms: _562  and  _564
REMARK  229  A    between atoms: _564  and  _565
REMARK  230  A    between atoms: _564  and  _567
REMARK  231  A    between atoms: _567  and  _568
REMARK  232  A    between atoms: _571  and  _573
REMARK  233  A    between atoms: _573  and  _574
REMARK  234  A    between atoms: _573  and  _576
REMARK  235  A    between atoms: _576  and  _577
REMARK  236  A    between atoms: _582  and  _583
REMARK                            x       y       z     vdW  Elec       q    Type
REMARK                         _______ _______ _______ _____ _____    ______ ____
ROOT
ATOM      1  O   HOH     1       5.053  -0.166   7.205  0.00  0.00    +0.000 OA
ENDROOT
TORSDOF 0
REMARK  Name = ../refined-set-2016/4h75/4h75_pocket.pdb
REMARK  236 active torsions:
REMARK  status: ('A' for Active; 'I' for Inactive)
REMARK    1  A    between atoms: _1  and  _3
REMARK    2  A    between atoms: _3  and  _4
REMARK    3  A    between atoms: _3  and  _6
REMARK    4  A    between atoms: _6  and  _7
REMARK    5  A    between atoms: _17  and  _19
REMARK    6  A    between atoms: _19  and  _20
REMARK    7  A    between atoms: _19  and  _22
REMARK    8  A    between atoms: _22  and  _23
REMARK    9  A    between atoms: _23  and  _24
REMARK   10  A    between atoms: _24  and  _25
REMARK   11  A    between atoms: _25  and  _26
REMARK   12  A    between atoms: _30  and  _32
REMARK   13  A    between atoms: _32  and  _33
REMARK   14  A    between atoms: _32  and  _35
REMARK   15  A    between atoms: _35  and  _36
REMARK   16  A    between atoms: _41  and  _42
REMARK   17  A    between atoms: _44  and  _46
REMARK   18  A    between atoms: _46  and  _47
REMARK   19  A    between atoms: _46  and  _49
REMARK   20  A    between atoms: _49  and  _50
REMARK   21  A    between atoms: _53  and  _55
REMARK   22  A    between atoms: _55  and  _56
REMARK   23  A    between atoms: _58  and  _60
REMARK   24  A    between atoms: _60  and  _61
REMARK   25  A    between atoms: _60  and  _63
REMARK   26  A    between atoms: _63  and  _64
REMARK   27  A    between atoms: _70  and  _72
REMARK   28  A    between atoms: _72  and  _73
REMARK   29  A    between atoms: _72  and  _75
REMARK   30  A    between atoms: _75  and  _76
REMARK   31  A    between atoms: _79  and  _81
REMARK   32  A    between atoms: _81  and  _82
REMARK   33  A    between atoms: _81  and  _84
REMARK   34  A    between atoms: _86  and  _88
REMARK   35  A    between atoms: _88  and  _89
REMARK   36  A    between atoms: _88  and  _91
REMARK   37  A    between atoms: _94  and  _96
REMARK   38  A    between atoms: _96  and  _97
REMARK   39  A    between atoms: _96  and  _99
REMARK   40  A    between atoms: _99  and  _100
REMARK   41  A    between atoms: _105  and  _106
REMARK   42  A    between atoms: _108  and  _110
REMARK   43  A    between atoms: _110  and  _111
REMARK   44  A    between atoms: _110  and  _113
REMARK   45  A    between atoms: _113  and  _114
REMARK   46  A    between atoms: _119  and  _121
REMARK   47  A    between atoms: _121  and  _122
REMARK   48  A    between atoms: _121  and  _124
REMARK   49  A    between atoms: _124  and  _125
REMARK   50  A    between atoms: _125  and  _126
REMARK   51  A    between atoms: _128  and  _130
REMARK   52  A    between atoms: _130  and  _131
REMARK   53  A    between atoms: _130  and  _133
REMARK   54  A    between atoms: _133  and  _134
REMARK   55  A    between atoms: _140  and  _142
REMARK   56  A    between atoms: _142  and  _143
REMARK   57  A    between atoms: _142  and  _145
REMARK   58  A    between atoms: _145  and  _146
REMARK   59  A    between atoms: _146  and  _147
REMARK   60  A    between atoms: _150  and  _152
REMARK   61  A    between atoms: _152  and  _153
REMARK   62  A    between atoms: _152  and  _155
REMARK   63  A    between atoms: _155  and  _156
REMARK   64  A    between atoms: _159  and  _161
REMARK   65  A    between atoms: _161  and  _162
REMARK   66  A    between atoms: _161  and  _164
REMARK   67  A    between atoms: _164  and  _165
REMARK   68  A    between atoms: _165  and  _166
REMARK   69  A    between atoms: _169  and  _171
REMARK   70  A    between atoms: _171  and  _172
REMARK   71  A    between atoms: _171  and  _174
REMARK   72  A    between atoms: _174  and  _175
REMARK   73  A    between atoms: _178  and  _180
REMARK   74  A    between atoms: _180  and  _181
REMARK   75  A    between atoms: _183  and  _185
REMARK   76  A    between atoms: _185  and  _186
REMARK   77  A    between atoms: _185  and  _188
REMARK   78  A    between atoms: _188  and  _189
REMARK   79  A    between atoms: _191  and  _193
REMARK   80  A    between atoms: _193  and  _194
REMARK   81  A    between atoms: _193  and  _196
REMARK   82  A    between atoms: _196  and  _197
REMARK   83  A    between atoms: _197  and  _198
REMARK   84  A    between atoms: _198  and  _199
REMARK   85  A    between atoms: _199  and  _200
REMARK   86  A    between atoms: _204  and  _206
REMARK   87  A    between atoms: _206  and  _207
REMARK   88  A    between atoms: _206  and  _209
REMARK   89  A    between atoms: _209  and  _210
REMARK   90  A    between atoms: _213  and  _215
REMARK   91  A    between atoms: _215  and  _216
REMARK   92  A    between atoms: _215  and  _218
REMARK   93  A    between atoms: _218  and  _219
REMARK   94  A    between atoms: _219  and  _220
REMARK   95  A    between atoms: _223  and  _225
REMARK   96  A    between atoms: _225  and  _226
REMARK   97  A    between atoms: _225  and  _228
REMARK   98  A    between atoms: _228  and  _229
REMARK   99  A    between atoms: _239  and  _241
REMARK  100  A    between atoms: _241  and  _242
REMARK  101  A    between atoms: _241  and  _244
REMARK  102  A    between atoms: _244  and  _245
REMARK  103  A    between atoms: _245  and  _246
REMARK  104  A    between atoms: _246  and  _247
REMARK  105  A    between atoms: _256  and  _258
REMARK  106  A    between atoms: _258  and  _259
REMARK  107  A    between atoms: _258  and  _261
REMARK  108  A    between atoms: _261  and  _262
REMARK  109  A    between atoms: _265  and  _267
REMARK  110  A    between atoms: _267  and  _268
REMARK  111  A    between atoms: _267  and  _270
REMARK  112  A    between atoms: _270  and  _271
REMARK  113  A    between atoms: _281  and  _283
REMARK  114  A    between atoms: _283  and  _284
REMARK  115  A    between atoms: _283  and  _286
REMARK  116  A    between atoms: _286  and  _287
REMARK  117  A    between atoms: _293  and  _295
REMARK  118  A    between atoms: _295  and  _296
REMARK  119  A    between atoms: _295  and  _298
REMARK  120  A    between atoms: _298  and  _299
REMARK  121  A    between atoms: _302  and  _304
REMARK  122  A    between atoms: _304  and  _305
REMARK  123  A    between atoms: _304  and  _307
REMARK  124  A    between atoms: _307  and  _308
REMARK  125  A    between atoms: _311  and  _313
REMARK  126  A    between atoms: _313  and  _314
REMARK  127  A    between atoms: _313  and  _316
REMARK  128  A    between atoms: _316  and  _317
REMARK  129  A    between atoms: _322  and  _323
REMARK  130  A    between atoms: _325  and  _327
REMARK  131  A    between atoms: _327  and  _328
REMARK  132  A    between atoms: _327  and  _330
REMARK  133  A    between atoms: _330  and  _331
REMARK  134  A    between atoms: _331  and  _332
REMARK  135  A    between atoms: _335  and  _337
REMARK  136  A    between atoms: _337  and  _338
REMARK  137  A    between atoms: _337  and  _340
REMARK  138  A    between atoms: _340  and  _341
REMARK  139  A    between atoms: _341  and  _342
REMARK  140  A    between atoms: _342  and  _343
REMARK  141  A    between atoms: _343  and  _344
REMARK  142  A    between atoms: _348  and  _350
REMARK  143  A    between atoms: _350  and  _351
REMARK  144  A    between atoms: _350  and  _353
REMARK  145  A    between atoms: _353  and  _354
REMARK  146  A    between atoms: _358  and  _359
REMARK  147  A    between atoms: _364  and  _366
REMARK  148  A    between atoms: _366  and  _367
REMARK  149  A    between atoms: _366  and  _369
REMARK  150  A    between atoms: _372  and  _374
REMARK  151  A    between atoms: _374  and  _375
REMARK  152  A    between atoms: _374  and  _377
REMARK  153  A    between atoms: _377  and  _378
REMARK  154  A    between atoms: _381  and  _383
REMARK  155  A    between atoms: _383  and  _384
REMARK  156  A    between atoms: _383  and  _386
REMARK  157  A    between atoms: _386  and  _387
REMARK  158  A    between atoms: _392  and  _393
REMARK  159  A    between atoms: _395  and  _397
REMARK  160  A    between atoms: _397  and  _398
REMARK  161  A    between atoms: _397  and  _400
REMARK  162  A    between atoms: _400  and  _401
REMARK  163  A    between atoms: _401  and  _402
REMARK  164  A    between atoms: _404  and  _406
REMARK  165  A    between atoms: _406  and  _407
REMARK  166  A    between atoms: _406  and  _409
REMARK  167  A    between atoms: _409  and  _410
REMARK  168  A    between atoms: _415  and  _416
REMARK  169  A    between atoms: _418  and  _420
REMARK  170  A    between atoms: _420  and  _421
REMARK  171  A    between atoms: _420  and  _423
REMARK  172  A    between atoms: _423  and  _424
REMARK  173  A    between atoms: _424  and  _425
REMARK  174  A    between atoms: _430  and  _432
REMARK  175  A    between atoms: _432  and  _433
REMARK  176  A    between atoms: _432  and  _435
REMARK  177  A    between atoms: _435  and  _436
REMARK  178  A    between atoms: _439  and  _441
REMARK  179  A    between atoms: _441  and  _442
REMARK  180  A    between atoms: _441  and  _444
REMARK  181  A    between atoms: _444  and  _445
REMARK  182  A    between atoms: _448  and  _450
REMARK  183  A    between atoms: _450  and  _451
REMARK  184  A    between atoms: _450  and  _453
REMARK  185  A    between atoms: _453  and  _454
REMARK  186  A    between atoms: _457  and  _459
REMARK  187  A    between atoms: _459  and  _460
REMARK  188  A    between atoms: _459  and  _462
REMARK  189  A    between atoms: _462  and  _463
REMARK  190  A    between atoms: _466  and  _468
REMARK  191  A    between atoms: _468  and  _469
REMARK  192  A    between atoms: _468  and  _471
REMARK  193  A    between atoms: _471  and  _472
REMARK  194  A    between atoms: _477  and  _478
REMARK  195  A    between atoms: _480  and  _482
REMARK  196  A    between atoms: _482  and  _483
REMARK  197  A    between atoms: _482  and  _485
REMARK  198  A    between atoms: _485  and  _486
REMARK  199  A    between atoms: _486  and  _487
REMARK  200  A    between atoms: _490  and  _492
REMARK  201  A    between atoms: _492  and  _493
REMARK  202  A    between atoms: _495  and  _497
REMARK  203  A    between atoms: _497  and  _498
REMARK  204  A    between atoms: _497  and  _500
REMARK  205  A    between atoms: _500  and  _501
REMARK  206  A    between atoms: _504  and  _506
REMARK  207  A    between atoms: _506  and  _507
REMARK  208  A    between atoms: _506  and  _509
REMARK  209  A    between atoms: _509  and  _510
REMARK  210  A    between atoms: _513  and  _515
REMARK  211  A    between atoms: _515  and  _516
REMARK  212  A    between atoms: _515  and  _518
REMARK  213  A    between atoms: _518  and  _519
REMARK  214  A    between atoms: _519  and  _520
REMARK  215  A    between atoms: _520  and  _521
REMARK  216  A    between atoms: _530  and  _532
REMARK  217  A    between atoms: _532  and  _533
REMARK  218  A    between atoms: _532  and  _535
REMARK  219  A    between atoms: _535  and  _536
REMARK  220  A    between atoms: _539  and  _541
REMARK  221  A    between atoms: _541  and  _542
REMARK  222  A    between atoms: _541  and  _544
REMARK  223  A    between atoms: _544  and  _545
REMARK  224  A    between atoms: _551  and  _553
REMARK  225  A    between atoms: _553  and  _554
REMARK  226  A    between atoms: _553  and  _556
REMARK  227  A    between atoms: _556  and  _557
REMARK  228  A    between atoms: _562  and  _564
REMARK  229  A    between atoms: _564  and  _565
REMARK  230  A    between atoms: _564  and  _567
REMARK  231  A    between atoms: _567  and  _568
REMARK  232  A    between atoms: _571  and  _573
REMARK  233  A    between atoms: _573  and  _574
REMARK  234  A    between atoms: _573  and  _576
REMARK  235  A    between atoms: _576  and  _577
REMARK  236  A    between atoms: _582  and  _583
REMARK                            x       y       z     vdW  Elec       q    Type
REMARK                         _______ _______ _______ _____ _____    ______ ____
ROOT
ATOM      1  O   HOH     1      13.436  16.167  -1.562  0.00  0.00    +0.000 OA
ENDROOT
TORSDOF 0
REMARK  Name = ../refined-set-2016/4h75/4h75_pocket.pdb
REMARK  236 active torsions:
REMARK  status: ('A' for Active; 'I' for Inactive)
REMARK    1  A    between atoms: _1  and  _3
REMARK    2  A    between atoms: _3  and  _4
REMARK    3  A    between atoms: _3  and  _6
REMARK    4  A    between atoms: _6  and  _7
REMARK    5  A    between atoms: _17  and  _19
REMARK    6  A    between atoms: _19  and  _20
REMARK    7  A    between atoms: _19  and  _22
REMARK    8  A    between atoms: _22  and  _23
REMARK    9  A    between atoms: _23  and  _24
REMARK   10  A    between atoms: _24  and  _25
REMARK   11  A    between atoms: _25  and  _26
REMARK   12  A    between atoms: _30  and  _32
REMARK   13  A    between atoms: _32  and  _33
REMARK   14  A    between atoms: _32  and  _35
REMARK   15  A    between atoms: _35  and  _36
REMARK   16  A    between atoms: _41  and  _42
REMARK   17  A    between atoms: _44  and  _46
REMARK   18  A    between atoms: _46  and  _47
REMARK   19  A    between atoms: _46  and  _49
REMARK   20  A    between atoms: _49  and  _50
REMARK   21  A    between atoms: _53  and  _55
REMARK   22  A    between atoms: _55  and  _56
REMARK   23  A    between atoms: _58  and  _60
REMARK   24  A    between atoms: _60  and  _61
REMARK   25  A    between atoms: _60  and  _63
REMARK   26  A    between atoms: _63  and  _64
REMARK   27  A    between atoms: _70  and  _72
REMARK   28  A    between atoms: _72  and  _73
REMARK   29  A    between atoms: _72  and  _75
REMARK   30  A    between atoms: _75  and  _76
REMARK   31  A    between atoms: _79  and  _81
REMARK   32  A    between atoms: _81  and  _82
REMARK   33  A    between atoms: _81  and  _84
REMARK   34  A    between atoms: _86  and  _88
REMARK   35  A    between atoms: _88  and  _89
REMARK   36  A    between atoms: _88  and  _91
REMARK   37  A    between atoms: _94  and  _96
REMARK   38  A    between atoms: _96  and  _97
REMARK   39  A    between atoms: _96  and  _99
REMARK   40  A    between atoms: _99  and  _100
REMARK   41  A    between atoms: _105  and  _106
REMARK   42  A    between atoms: _108  and  _110
REMARK   43  A    between atoms: _110  and  _111
REMARK   44  A    between atoms: _110  and  _113
REMARK   45  A    between atoms: _113  and  _114
REMARK   46  A    between atoms: _119  and  _121
REMARK   47  A    between atoms: _121  and  _122
REMARK   48  A    between atoms: _121  and  _124
REMARK   49  A    between atoms: _124  and  _125
REMARK   50  A    between atoms: _125  and  _126
REMARK   51  A    between atoms: _128  and  _130
REMARK   52  A    between atoms: _130  and  _131
REMARK   53  A    between atoms: _130  and  _133
REMARK   54  A    between atoms: _133  and  _134
REMARK   55  A    between atoms: _140  and  _142
REMARK   56  A    between atoms: _142  and  _143
REMARK   57  A    between atoms: _142  and  _145
REMARK   58  A    between atoms: _145  and  _146
REMARK   59  A    between atoms: _146  and  _147
REMARK   60  A    between atoms: _150  and  _152
REMARK   61  A    between atoms: _152  and  _153
REMARK   62  A    between atoms: _152  and  _155
REMARK   63  A    between atoms: _155  and  _156
REMARK   64  A    between atoms: _159  and  _161
REMARK   65  A    between atoms: _161  and  _162
REMARK   66  A    between atoms: _161  and  _164
REMARK   67  A    between atoms: _164  and  _165
REMARK   68  A    between atoms: _165  and  _166
REMARK   69  A    between atoms: _169  and  _171
REMARK   70  A    between atoms: _171  and  _172
REMARK   71  A    between atoms: _171  and  _174
REMARK   72  A    between atoms: _174  and  _175
REMARK   73  A    between atoms: _178  and  _180
REMARK   74  A    between atoms: _180  and  _181
REMARK   75  A    between atoms: _183  and  _185
REMARK   76  A    between atoms: _185  and  _186
REMARK   77  A    between atoms: _185  and  _188
REMARK   78  A    between atoms: _188  and  _189
REMARK   79  A    between atoms: _191  and  _193
REMARK   80  A    between atoms: _193  and  _194
REMARK   81  A    between atoms: _193  and  _196
REMARK   82  A    between atoms: _196  and  _197
REMARK   83  A    between atoms: _197  and  _198
REMARK   84  A    between atoms: _198  and  _199
REMARK   85  A    between atoms: _199  and  _200
REMARK   86  A    between atoms: _204  and  _206
REMARK   87  A    between atoms: _206  and  _207
REMARK   88  A    between atoms: _206  and  _209
REMARK   89  A    between atoms: _209  and  _210
REMARK   90  A    between atoms: _213  and  _215
REMARK   91  A    between atoms: _215  and  _216
REMARK   92  A    between atoms: _215  and  _218
REMARK   93  A    between atoms: _218  and  _219
REMARK   94  A    between atoms: _219  and  _220
REMARK   95  A    between atoms: _223  and  _225
REMARK   96  A    between atoms: _225  and  _226
REMARK   97  A    between atoms: _225  and  _228
REMARK   98  A    between atoms: _228  and  _229
REMARK   99  A    between atoms: _239  and  _241
REMARK  100  A    between atoms: _241  and  _242
REMARK  101  A    between atoms: _241  and  _244
REMARK  102  A    between atoms: _244  and  _245
REMARK  103  A    between atoms: _245  and  _246
REMARK  104  A    between atoms: _246  and  _247
REMARK  105  A    between atoms: _256  and  _258
REMARK  106  A    between atoms: _258  and  _259
REMARK  107  A    between atoms: _258  and  _261
REMARK  108  A    between atoms: _261  and  _262
REMARK  109  A    between atoms: _265  and  _267
REMARK  110  A    between atoms: _267  and  _268
REMARK  111  A    between atoms: _267  and  _270
REMARK  112  A    between atoms: _270  and  _271
REMARK  113  A    between atoms: _281  and  _283
REMARK  114  A    between atoms: _283  and  _284
REMARK  115  A    between atoms: _283  and  _286
REMARK  116  A    between atoms: _286  and  _287
REMARK  117  A    between atoms: _293  and  _295
REMARK  118  A    between atoms: _295  and  _296
REMARK  119  A    between atoms: _295  and  _298
REMARK  120  A    between atoms: _298  and  _299
REMARK  121  A    between atoms: _302  and  _304
REMARK  122  A    between atoms: _304  and  _305
REMARK  123  A    between atoms: _304  and  _307
REMARK  124  A    between atoms: _307  and  _308
REMARK  125  A    between atoms: _311  and  _313
REMARK  126  A    between atoms: _313  and  _314
REMARK  127  A    between atoms: _313  and  _316
REMARK  128  A    between atoms: _316  and  _317
REMARK  129  A    between atoms: _322  and  _323
REMARK  130  A    between atoms: _325  and  _327
REMARK  131  A    between atoms: _327  and  _328
REMARK  132  A    between atoms: _327  and  _330
REMARK  133  A    between atoms: _330  and  _331
REMARK  134  A    between atoms: _331  and  _332
REMARK  135  A    between atoms: _335  and  _337
REMARK  136  A    between atoms: _337  and  _338
REMARK  137  A    between atoms: _337  and  _340
REMARK  138  A    between atoms: _340  and  _341
REMARK  139  A    between atoms: _341  and  _342
REMARK  140  A    between atoms: _342  and  _343
REMARK  141  A    between atoms: _343  and  _344
REMARK  142  A    between atoms: _348  and  _350
REMARK  143  A    between atoms: _350  and  _351
REMARK  144  A    between atoms: _350  and  _353
REMARK  145  A    between atoms: _353  and  _354
REMARK  146  A    between atoms: _358  and  _359
REMARK  147  A    between atoms: _364  and  _366
REMARK  148  A    between atoms: _366  and  _367
REMARK  149  A    between atoms: _366  and  _369
REMARK  150  A    between atoms: _372  and  _374
REMARK  151  A    between atoms: _374  and  _375
REMARK  152  A    between atoms: _374  and  _377
REMARK  153  A    between atoms: _377  and  _378
REMARK  154  A    between atoms: _381  and  _383
REMARK  155  A    between atoms: _383  and  _384
REMARK  156  A    between atoms: _383  and  _386
REMARK  157  A    between atoms: _386  and  _387
REMARK  158  A    between atoms: _392  and  _393
REMARK  159  A    between atoms: _395  and  _397
REMARK  160  A    between atoms: _397  and  _398
REMARK  161  A    between atoms: _397  and  _400
REMARK  162  A    between atoms: _400  and  _401
REMARK  163  A    between atoms: _401  and  _402
REMARK  164  A    between atoms: _404  and  _406
REMARK  165  A    between atoms: _406  and  _407
REMARK  166  A    between atoms: _406  and  _409
REMARK  167  A    between atoms: _409  and  _410
REMARK  168  A    between atoms: _415  and  _416
REMARK  169  A    between atoms: _418  and  _420
REMARK  170  A    between atoms: _420  and  _421
REMARK  171  A    between atoms: _420  and  _423
REMARK  172  A    between atoms: _423  and  _424
REMARK  173  A    between atoms: _424  and  _425
REMARK  174  A    between atoms: _430  and  _432
REMARK  175  A    between atoms: _432  and  _433
REMARK  176  A    between atoms: _432  and  _435
REMARK  177  A    between atoms: _435  and  _436
REMARK  178  A    between atoms: _439  and  _441
REMARK  179  A    between atoms: _441  and  _442
REMARK  180  A    between atoms: _441  and  _444
REMARK  181  A    between atoms: _444  and  _445
REMARK  182  A    between atoms: _448  and  _450
REMARK  183  A    between atoms: _450  and  _451
REMARK  184  A    between atoms: _450  and  _453
REMARK  185  A    between atoms: _453  and  _454
REMARK  186  A    between atoms: _457  and  _459
REMARK  187  A    between atoms: _459  and  _460
REMARK  188  A    between atoms: _459  and  _462
REMARK  189  A    between atoms: _462  and  _463
REMARK  190  A    between atoms: _466  and  _468
REMARK  191  A    between atoms: _468  and  _469
REMARK  192  A    between atoms: _468  and  _471
REMARK  193  A    between atoms: _471  and  _472
REMARK  194  A    between atoms: _477  and  _478
REMARK  195  A    between atoms: _480  and  _482
REMARK  196  A    between atoms: _482  and  _483
REMARK  197  A    between atoms: _482  and  _485
REMARK  198  A    between atoms: _485  and  _486
REMARK  199  A    between atoms: _486  and  _487
REMARK  200  A    between atoms: _490  and  _492
REMARK  201  A    between atoms: _492  and  _493
REMARK  202  A    between atoms: _495  and  _497
REMARK  203  A    between atoms: _497  and  _498
REMARK  204  A    between atoms: _497  and  _500
REMARK  205  A    between atoms: _500  and  _501
REMARK  206  A    between atoms: _504  and  _506
REMARK  207  A    between atoms: _506  and  _507
REMARK  208  A    between atoms: _506  and  _509
REMARK  209  A    between atoms: _509  and  _510
REMARK  210  A    between atoms: _513  and  _515
REMARK  211  A    between atoms: _515  and  _516
REMARK  212  A    between atoms: _515  and  _518
REMARK  213  A    between atoms: _518  and  _519
REMARK  214  A    between atoms: _519  and  _520
REMARK  215  A    between atoms: _520  and  _521
REMARK  216  A    between atoms: _530  and  _532
REMARK  217  A    between atoms: _532  and  _533
REMARK  218  A    between atoms: _532  and  _535
REMARK  219  A    between atoms: _535  and  _536
REMARK  220  A    between atoms: _539  and  _541
REMARK  221  A    between atoms: _541  and  _542
REMARK  222  A    between atoms: _541  and  _544
REMARK  223  A    between atoms: _544  and  _545
REMARK  224  A    between atoms: _551  and  _553
REMARK  225  A    between atoms: _553  and  _554
REMARK  226  A    between atoms: _553  and  _556
REMARK  227  A    between atoms: _556  and  _557
REMARK  228  A    between atoms: _562  and  _564
REMARK  229  A    between atoms: _564  and  _565
REMARK  230  A    between atoms: _564  and  _567
REMARK  231  A    between atoms: _567  and  _568
REMARK  232  A    between atoms: _571  and  _573
REMARK  233  A    between atoms: _573  and  _574
REMARK  234  A    between atoms: _573  and  _576
REMARK  235  A    between atoms: _576  and  _577
REMARK  236  A    between atoms: _582  and  _583
REMARK                            x       y       z     vdW  Elec       q    Type
REMARK                         _______ _______ _______ _____ _____    ______ ____
ROOT
ATOM      1  O   HOH     1      19.680   9.902  -0.957  0.00  0.00    +0.000 OA
ENDROOT
TORSDOF 0
REMARK  Name = ../refined-set-2016/4h75/4h75_pocket.pdb
REMARK  236 active torsions:
REMARK  status: ('A' for Active; 'I' for Inactive)
REMARK    1  A    between atoms: _1  and  _3
REMARK    2  A    between atoms: _3  and  _4
REMARK    3  A    between atoms: _3  and  _6
REMARK    4  A    between atoms: _6  and  _7
REMARK    5  A    between atoms: _17  and  _19
REMARK    6  A    between atoms: _19  and  _20
REMARK    7  A    between atoms: _19  and  _22
REMARK    8  A    between atoms: _22  and  _23
REMARK    9  A    between atoms: _23  and  _24
REMARK   10  A    between atoms: _24  and  _25
REMARK   11  A    between atoms: _25  and  _26
REMARK   12  A    between atoms: _30  and  _32
REMARK   13  A    between atoms: _32  and  _33
REMARK   14  A    between atoms: _32  and  _35
REMARK   15  A    between atoms: _35  and  _36
REMARK   16  A    between atoms: _41  and  _42
REMARK   17  A    between atoms: _44  and  _46
REMARK   18  A    between atoms: _46  and  _47
REMARK   19  A    between atoms: _46  and  _49
REMARK   20  A    between atoms: _49  and  _50
REMARK   21  A    between atoms: _53  and  _55
REMARK   22  A    between atoms: _55  and  _56
REMARK   23  A    between atoms: _58  and  _60
REMARK   24  A    between atoms: _60  and  _61
REMARK   25  A    between atoms: _60  and  _63
REMARK   26  A    between atoms: _63  and  _64
REMARK   27  A    between atoms: _70  and  _72
REMARK   28  A    between atoms: _72  and  _73
REMARK   29  A    between atoms: _72  and  _75
REMARK   30  A    between atoms: _75  and  _76
REMARK   31  A    between atoms: _79  and  _81
REMARK   32  A    between atoms: _81  and  _82
REMARK   33  A    between atoms: _81  and  _84
REMARK   34  A    between atoms: _86  and  _88
REMARK   35  A    between atoms: _88  and  _89
REMARK   36  A    between atoms: _88  and  _91
REMARK   37  A    between atoms: _94  and  _96
REMARK   38  A    between atoms: _96  and  _97
REMARK   39  A    between atoms: _96  and  _99
REMARK   40  A    between atoms: _99  and  _100
REMARK   41  A    between atoms: _105  and  _106
REMARK   42  A    between atoms: _108  and  _110
REMARK   43  A    between atoms: _110  and  _111
REMARK   44  A    between atoms: _110  and  _113
REMARK   45  A    between atoms: _113  and  _114
REMARK   46  A    between atoms: _119  and  _121
REMARK   47  A    between atoms: _121  and  _122
REMARK   48  A    between atoms: _121  and  _124
REMARK   49  A    between atoms: _124  and  _125
REMARK   50  A    between atoms: _125  and  _126
REMARK   51  A    between atoms: _128  and  _130
REMARK   52  A    between atoms: _130  and  _131
REMARK   53  A    between atoms: _130  and  _133
REMARK   54  A    between atoms: _133  and  _134
REMARK   55  A    between atoms: _140  and  _142
REMARK   56  A    between atoms: _142  and  _143
REMARK   57  A    between atoms: _142  and  _145
REMARK   58  A    between atoms: _145  and  _146
REMARK   59  A    between atoms: _146  and  _147
REMARK   60  A    between atoms: _150  and  _152
REMARK   61  A    between atoms: _152  and  _153
REMARK   62  A    between atoms: _152  and  _155
REMARK   63  A    between atoms: _155  and  _156
REMARK   64  A    between atoms: _159  and  _161
REMARK   65  A    between atoms: _161  and  _162
REMARK   66  A    between atoms: _161  and  _164
REMARK   67  A    between atoms: _164  and  _165
REMARK   68  A    between atoms: _165  and  _166
REMARK   69  A    between atoms: _169  and  _171
REMARK   70  A    between atoms: _171  and  _172
REMARK   71  A    between atoms: _171  and  _174
REMARK   72  A    between atoms: _174  and  _175
REMARK   73  A    between atoms: _178  and  _180
REMARK   74  A    between atoms: _180  and  _181
REMARK   75  A    between atoms: _183  and  _185
REMARK   76  A    between atoms: _185  and  _186
REMARK   77  A    between atoms: _185  and  _188
REMARK   78  A    between atoms: _188  and  _189
REMARK   79  A    between atoms: _191  and  _193
REMARK   80  A    between atoms: _193  and  _194
REMARK   81  A    between atoms: _193  and  _196
REMARK   82  A    between atoms: _196  and  _197
REMARK   83  A    between atoms: _197  and  _198
REMARK   84  A    between atoms: _198  and  _199
REMARK   85  A    between atoms: _199  and  _200
REMARK   86  A    between atoms: _204  and  _206
REMARK   87  A    between atoms: _206  and  _207
REMARK   88  A    between atoms: _206  and  _209
REMARK   89  A    between atoms: _209  and  _210
REMARK   90  A    between atoms: _213  and  _215
REMARK   91  A    between atoms: _215  and  _216
REMARK   92  A    between atoms: _215  and  _218
REMARK   93  A    between atoms: _218  and  _219
REMARK   94  A    between atoms: _219  and  _220
REMARK   95  A    between atoms: _223  and  _225
REMARK   96  A    between atoms: _225  and  _226
REMARK   97  A    between atoms: _225  and  _228
REMARK   98  A    between atoms: _228  and  _229
REMARK   99  A    between atoms: _239  and  _241
REMARK  100  A    between atoms: _241  and  _242
REMARK  101  A    between atoms: _241  and  _244
REMARK  102  A    between atoms: _244  and  _245
REMARK  103  A    between atoms: _245  and  _246
REMARK  104  A    between atoms: _246  and  _247
REMARK  105  A    between atoms: _256  and  _258
REMARK  106  A    between atoms: _258  and  _259
REMARK  107  A    between atoms: _258  and  _261
REMARK  108  A    between atoms: _261  and  _262
REMARK  109  A    between atoms: _265  and  _267
REMARK  110  A    between atoms: _267  and  _268
REMARK  111  A    between atoms: _267  and  _270
REMARK  112  A    between atoms: _270  and  _271
REMARK  113  A    between atoms: _281  and  _283
REMARK  114  A    between atoms: _283  and  _284
REMARK  115  A    between atoms: _283  and  _286
REMARK  116  A    between atoms: _286  and  _287
REMARK  117  A    between atoms: _293  and  _295
REMARK  118  A    between atoms: _295  and  _296
REMARK  119  A    between atoms: _295  and  _298
REMARK  120  A    between atoms: _298  and  _299
REMARK  121  A    between atoms: _302  and  _304
REMARK  122  A    between atoms: _304  and  _305
REMARK  123  A    between atoms: _304  and  _307
REMARK  124  A    between atoms: _307  and  _308
REMARK  125  A    between atoms: _311  and  _313
REMARK  126  A    between atoms: _313  and  _314
REMARK  127  A    between atoms: _313  and  _316
REMARK  128  A    between atoms: _316  and  _317
REMARK  129  A    between atoms: _322  and  _323
REMARK  130  A    between atoms: _325  and  _327
REMARK  131  A    between atoms: _327  and  _328
REMARK  132  A    between atoms: _327  and  _330
REMARK  133  A    between atoms: _330  and  _331
REMARK  134  A    between atoms: _331  and  _332
REMARK  135  A    between atoms: _335  and  _337
REMARK  136  A    between atoms: _337  and  _338
REMARK  137  A    between atoms: _337  and  _340
REMARK  138  A    between atoms: _340  and  _341
REMARK  139  A    between atoms: _341  and  _342
REMARK  140  A    between atoms: _342  and  _343
REMARK  141  A    between atoms: _343  and  _344
REMARK  142  A    between atoms: _348  and  _350
REMARK  143  A    between atoms: _350  and  _351
REMARK  144  A    between atoms: _350  and  _353
REMARK  145  A    between atoms: _353  and  _354
REMARK  146  A    between atoms: _358  and  _359
REMARK  147  A    between atoms: _364  and  _366
REMARK  148  A    between atoms: _366  and  _367
REMARK  149  A    between atoms: _366  and  _369
REMARK  150  A    between atoms: _372  and  _374
REMARK  151  A    between atoms: _374  and  _375
REMARK  152  A    between atoms: _374  and  _377
REMARK  153  A    between atoms: _377  and  _378
REMARK  154  A    between atoms: _381  and  _383
REMARK  155  A    between atoms: _383  and  _384
REMARK  156  A    between atoms: _383  and  _386
REMARK  157  A    between atoms: _386  and  _387
REMARK  158  A    between atoms: _392  and  _393
REMARK  159  A    between atoms: _395  and  _397
REMARK  160  A    between atoms: _397  and  _398
REMARK  161  A    between atoms: _397  and  _400
REMARK  162  A    between atoms: _400  and  _401
REMARK  163  A    between atoms: _401  and  _402
REMARK  164  A    between atoms: _404  and  _406
REMARK  165  A    between atoms: _406  and  _407
REMARK  166  A    between atoms: _406  and  _409
REMARK  167  A    between atoms: _409  and  _410
REMARK  168  A    between atoms: _415  and  _416
REMARK  169  A    between atoms: _418  and  _420
REMARK  170  A    between atoms: _420  and  _421
REMARK  171  A    between atoms: _420  and  _423
REMARK  172  A    between atoms: _423  and  _424
REMARK  173  A    between atoms: _424  and  _425
REMARK  174  A    between atoms: _430  and  _432
REMARK  175  A    between atoms: _432  and  _433
REMARK  176  A    between atoms: _432  and  _435
REMARK  177  A    between atoms: _435  and  _436
REMARK  178  A    between atoms: _439  and  _441
REMARK  179  A    between atoms: _441  and  _442
REMARK  180  A    between atoms: _441  and  _444
REMARK  181  A    between atoms: _444  and  _445
REMARK  182  A    between atoms: _448  and  _450
REMARK  183  A    between atoms: _450  and  _451
REMARK  184  A    between atoms: _450  and  _453
REMARK  185  A    between atoms: _453  and  _454
REMARK  186  A    between atoms: _457  and  _459
REMARK  187  A    between atoms: _459  and  _460
REMARK  188  A    between atoms: _459  and  _462
REMARK  189  A    between atoms: _462  and  _463
REMARK  190  A    between atoms: _466  and  _468
REMARK  191  A    between atoms: _468  and  _469
REMARK  192  A    between atoms: _468  and  _471
REMARK  193  A    between atoms: _471  and  _472
REMARK  194  A    between atoms: _477  and  _478
REMARK  195  A    between atoms: _480  and  _482
REMARK  196  A    between atoms: _482  and  _483
REMARK  197  A    between atoms: _482  and  _485
REMARK  198  A    between atoms: _485  and  _486
REMARK  199  A    between atoms: _486  and  _487
REMARK  200  A    between atoms: _490  and  _492
REMARK  201  A    between atoms: _492  and  _493
REMARK  202  A    between atoms: _495  and  _497
REMARK  203  A    between atoms: _497  and  _498
REMARK  204  A    between atoms: _497  and  _500
REMARK  205  A    between atoms: _500  and  _501
REMARK  206  A    between atoms: _504  and  _506
REMARK  207  A    between atoms: _506  and  _507
REMARK  208  A    between atoms: _506  and  _509
REMARK  209  A    between atoms: _509  and  _510
REMARK  210  A    between atoms: _513  and  _515
REMARK  211  A    between atoms: _515  and  _516
REMARK  212  A    between atoms: _515  and  _518
REMARK  213  A    between atoms: _518  and  _519
REMARK  214  A    between atoms: _519  and  _520
REMARK  215  A    between atoms: _520  and  _521
REMARK  216  A    between atoms: _530  and  _532
REMARK  217  A    between atoms: _532  and  _533
REMARK  218  A    between atoms: _532  and  _535
REMARK  219  A    between atoms: _535  and  _536
REMARK  220  A    between atoms: _539  and  _541
REMARK  221  A    between atoms: _541  and  _542
REMARK  222  A    between atoms: _541  and  _544
REMARK  223  A    between atoms: _544  and  _545
REMARK  224  A    between atoms: _551  and  _553
REMARK  225  A    between atoms: _553  and  _554
REMARK  226  A    between atoms: _553  and  _556
REMARK  227  A    between atoms: _556  and  _557
REMARK  228  A    between atoms: _562  and  _564
REMARK  229  A    between atoms: _564  and  _565
REMARK  230  A    between atoms: _564  and  _567
REMARK  231  A    between atoms: _567  and  _568
REMARK  232  A    between atoms: _571  and  _573
REMARK  233  A    between atoms: _573  and  _574
REMARK  234  A    between atoms: _573  and  _576
REMARK  235  A    between atoms: _576  and  _577
REMARK  236  A    between atoms: _582  and  _583
REMARK                            x       y       z     vdW  Elec       q    Type
REMARK                         _______ _______ _______ _____ _____    ______ ____
ROOT
ATOM      1  O   HOH     1      26.872  -1.046   9.998  0.00  0.00    +0.000 OA
ENDROOT
TORSDOF 0
REMARK  Name = ../refined-set-2016/4h75/4h75_pocket.pdb
REMARK  236 active torsions:
REMARK  status: ('A' for Active; 'I' for Inactive)
REMARK    1  A    between atoms: _1  and  _3
REMARK    2  A    between atoms: _3  and  _4
REMARK    3  A    between atoms: _3  and  _6
REMARK    4  A    between atoms: _6  and  _7
REMARK    5  A    between atoms: _17  and  _19
REMARK    6  A    between atoms: _19  and  _20
REMARK    7  A    between atoms: _19  and  _22
REMARK    8  A    between atoms: _22  and  _23
REMARK    9  A    between atoms: _23  and  _24
REMARK   10  A    between atoms: _24  and  _25
REMARK   11  A    between atoms: _25  and  _26
REMARK   12  A    between atoms: _30  and  _32
REMARK   13  A    between atoms: _32  and  _33
REMARK   14  A    between atoms: _32  and  _35
REMARK   15  A    between atoms: _35  and  _36
REMARK   16  A    between atoms: _41  and  _42
REMARK   17  A    between atoms: _44  and  _46
REMARK   18  A    between atoms: _46  and  _47
REMARK   19  A    between atoms: _46  and  _49
REMARK   20  A    between atoms: _49  and  _50
REMARK   21  A    between atoms: _53  and  _55
REMARK   22  A    between atoms: _55  and  _56
REMARK   23  A    between atoms: _58  and  _60
REMARK   24  A    between atoms: _60  and  _61
REMARK   25  A    between atoms: _60  and  _63
REMARK   26  A    between atoms: _63  and  _64
REMARK   27  A    between atoms: _70  and  _72
REMARK   28  A    between atoms: _72  and  _73
REMARK   29  A    between atoms: _72  and  _75
REMARK   30  A    between atoms: _75  and  _76
REMARK   31  A    between atoms: _79  and  _81
REMARK   32  A    between atoms: _81  and  _82
REMARK   33  A    between atoms: _81  and  _84
REMARK   34  A    between atoms: _86  and  _88
REMARK   35  A    between atoms: _88  and  _89
REMARK   36  A    between atoms: _88  and  _91
REMARK   37  A    between atoms: _94  and  _96
REMARK   38  A    between atoms: _96  and  _97
REMARK   39  A    between atoms: _96  and  _99
REMARK   40  A    between atoms: _99  and  _100
REMARK   41  A    between atoms: _105  and  _106
REMARK   42  A    between atoms: _108  and  _110
REMARK   43  A    between atoms: _110  and  _111
REMARK   44  A    between atoms: _110  and  _113
REMARK   45  A    between atoms: _113  and  _114
REMARK   46  A    between atoms: _119  and  _121
REMARK   47  A    between atoms: _121  and  _122
REMARK   48  A    between atoms: _121  and  _124
REMARK   49  A    between atoms: _124  and  _125
REMARK   50  A    between atoms: _125  and  _126
REMARK   51  A    between atoms: _128  and  _130
REMARK   52  A    between atoms: _130  and  _131
REMARK   53  A    between atoms: _130  and  _133
REMARK   54  A    between atoms: _133  and  _134
REMARK   55  A    between atoms: _140  and  _142
REMARK   56  A    between atoms: _142  and  _143
REMARK   57  A    between atoms: _142  and  _145
REMARK   58  A    between atoms: _145  and  _146
REMARK   59  A    between atoms: _146  and  _147
REMARK   60  A    between atoms: _150  and  _152
REMARK   61  A    between atoms: _152  and  _153
REMARK   62  A    between atoms: _152  and  _155
REMARK   63  A    between atoms: _155  and  _156
REMARK   64  A    between atoms: _159  and  _161
REMARK   65  A    between atoms: _161  and  _162
REMARK   66  A    between atoms: _161  and  _164
REMARK   67  A    between atoms: _164  and  _165
REMARK   68  A    between atoms: _165  and  _166
REMARK   69  A    between atoms: _169  and  _171
REMARK   70  A    between atoms: _171  and  _172
REMARK   71  A    between atoms: _171  and  _174
REMARK   72  A    between atoms: _174  and  _175
REMARK   73  A    between atoms: _178  and  _180
REMARK   74  A    between atoms: _180  and  _181
REMARK   75  A    between atoms: _183  and  _185
REMARK   76  A    between atoms: _185  and  _186
REMARK   77  A    between atoms: _185  and  _188
REMARK   78  A    between atoms: _188  and  _189
REMARK   79  A    between atoms: _191  and  _193
REMARK   80  A    between atoms: _193  and  _194
REMARK   81  A    between atoms: _193  and  _196
REMARK   82  A    between atoms: _196  and  _197
REMARK   83  A    between atoms: _197  and  _198
REMARK   84  A    between atoms: _198  and  _199
REMARK   85  A    between atoms: _199  and  _200
REMARK   86  A    between atoms: _204  and  _206
REMARK   87  A    between atoms: _206  and  _207
REMARK   88  A    between atoms: _206  and  _209
REMARK   89  A    between atoms: _209  and  _210
REMARK   90  A    between atoms: _213  and  _215
REMARK   91  A    between atoms: _215  and  _216
REMARK   92  A    between atoms: _215  and  _218
REMARK   93  A    between atoms: _218  and  _219
REMARK   94  A    between atoms: _219  and  _220
REMARK   95  A    between atoms: _223  and  _225
REMARK   96  A    between atoms: _225  and  _226
REMARK   97  A    between atoms: _225  and  _228
REMARK   98  A    between atoms: _228  and  _229
REMARK   99  A    between atoms: _239  and  _241
REMARK  100  A    between atoms: _241  and  _242
REMARK  101  A    between atoms: _241  and  _244
REMARK  102  A    between atoms: _244  and  _245
REMARK  103  A    between atoms: _245  and  _246
REMARK  104  A    between atoms: _246  and  _247
REMARK  105  A    between atoms: _256  and  _258
REMARK  106  A    between atoms: _258  and  _259
REMARK  107  A    between atoms: _258  and  _261
REMARK  108  A    between atoms: _261  and  _262
REMARK  109  A    between atoms: _265  and  _267
REMARK  110  A    between atoms: _267  and  _268
REMARK  111  A    between atoms: _267  and  _270
REMARK  112  A    between atoms: _270  and  _271
REMARK  113  A    between atoms: _281  and  _283
REMARK  114  A    between atoms: _283  and  _284
REMARK  115  A    between atoms: _283  and  _286
REMARK  116  A    between atoms: _286  and  _287
REMARK  117  A    between atoms: _293  and  _295
REMARK  118  A    between atoms: _295  and  _296
REMARK  119  A    between atoms: _295  and  _298
REMARK  120  A    between atoms: _298  and  _299
REMARK  121  A    between atoms: _302  and  _304
REMARK  122  A    between atoms: _304  and  _305
REMARK  123  A    between atoms: _304  and  _307
REMARK  124  A    between atoms: _307  and  _308
REMARK  125  A    between atoms: _311  and  _313
REMARK  126  A    between atoms: _313  and  _314
REMARK  127  A    between atoms: _313  and  _316
REMARK  128  A    between atoms: _316  and  _317
REMARK  129  A    between atoms: _322  and  _323
REMARK  130  A    between atoms: _325  and  _327
REMARK  131  A    between atoms: _327  and  _328
REMARK  132  A    between atoms: _327  and  _330
REMARK  133  A    between atoms: _330  and  _331
REMARK  134  A    between atoms: _331  and  _332
REMARK  135  A    between atoms: _335  and  _337
REMARK  136  A    between atoms: _337  and  _338
REMARK  137  A    between atoms: _337  and  _340
REMARK  138  A    between atoms: _340  and  _341
REMARK  139  A    between atoms: _341  and  _342
REMARK  140  A    between atoms: _342  and  _343
REMARK  141  A    between atoms: _343  and  _344
REMARK  142  A    between atoms: _348  and  _350
REMARK  143  A    between atoms: _350  and  _351
REMARK  144  A    between atoms: _350  and  _353
REMARK  145  A    between atoms: _353  and  _354
REMARK  146  A    between atoms: _358  and  _359
REMARK  147  A    between atoms: _364  and  _366
REMARK  148  A    between atoms: _366  and  _367
REMARK  149  A    between atoms: _366  and  _369
REMARK  150  A    between atoms: _372  and  _374
REMARK  151  A    between atoms: _374  and  _375
REMARK  152  A    between atoms: _374  and  _377
REMARK  153  A    between atoms: _377  and  _378
REMARK  154  A    between atoms: _381  and  _383
REMARK  155  A    between atoms: _383  and  _384
REMARK  156  A    between atoms: _383  and  _386
REMARK  157  A    between atoms: _386  and  _387
REMARK  158  A    between atoms: _392  and  _393
REMARK  159  A    between atoms: _395  and  _397
REMARK  160  A    between atoms: _397  and  _398
REMARK  161  A    between atoms: _397  and  _400
REMARK  162  A    between atoms: _400  and  _401
REMARK  163  A    between atoms: _401  and  _402
REMARK  164  A    between atoms: _404  and  _406
REMARK  165  A    between atoms: _406  and  _407
REMARK  166  A    between atoms: _406  and  _409
REMARK  167  A    between atoms: _409  and  _410
REMARK  168  A    between atoms: _415  and  _416
REMARK  169  A    between atoms: _418  and  _420
REMARK  170  A    between atoms: _420  and  _421
REMARK  171  A    between atoms: _420  and  _423
REMARK  172  A    between atoms: _423  and  _424
REMARK  173  A    between atoms: _424  and  _425
REMARK  174  A    between atoms: _430  and  _432
REMARK  175  A    between atoms: _432  and  _433
REMARK  176  A    between atoms: _432  and  _435
REMARK  177  A    between atoms: _435  and  _436
REMARK  178  A    between atoms: _439  and  _441
REMARK  179  A    between atoms: _441  and  _442
REMARK  180  A    between atoms: _441  and  _444
REMARK  181  A    between atoms: _444  and  _445
REMARK  182  A    between atoms: _448  and  _450
REMARK  183  A    between atoms: _450  and  _451
REMARK  184  A    between atoms: _450  and  _453
REMARK  185  A    between atoms: _453  and  _454
REMARK  186  A    between atoms: _457  and  _459
REMARK  187  A    between atoms: _459  and  _460
REMARK  188  A    between atoms: _459  and  _462
REMARK  189  A    between atoms: _462  and  _463
REMARK  190  A    between atoms: _466  and  _468
REMARK  191  A    between atoms: _468  and  _469
REMARK  192  A    between atoms: _468  and  _471
REMARK  193  A    between atoms: _471  and  _472
REMARK  194  A    between atoms: _477  and  _478
REMARK  195  A    between atoms: _480  and  _482
REMARK  196  A    between atoms: _482  and  _483
REMARK  197  A    between atoms: _482  and  _485
REMARK  198  A    between atoms: _485  and  _486
REMARK  199  A    between atoms: _486  and  _487
REMARK  200  A    between atoms: _490  and  _492
REMARK  201  A    between atoms: _492  and  _493
REMARK  202  A    between atoms: _495  and  _497
REMARK  203  A    between atoms: _497  and  _498
REMARK  204  A    between atoms: _497  and  _500
REMARK  205  A    between atoms: _500  and  _501
REMARK  206  A    between atoms: _504  and  _506
REMARK  207  A    between atoms: _506  and  _507
REMARK  208  A    between atoms: _506  and  _509
REMARK  209  A    between atoms: _509  and  _510
REMARK  210  A    between atoms: _513  and  _515
REMARK  211  A    between atoms: _515  and  _516
REMARK  212  A    between atoms: _515  and  _518
REMARK  213  A    between atoms: _518  and  _519
REMARK  214  A    between atoms: _519  and  _520
REMARK  215  A    between atoms: _520  and  _521
REMARK  216  A    between atoms: _530  and  _532
REMARK  217  A    between atoms: _532  and  _533
REMARK  218  A    between atoms: _532  and  _535
REMARK  219  A    between atoms: _535  and  _536
REMARK  220  A    between atoms: _539  and  _541
REMARK  221  A    between atoms: _541  and  _542
REMARK  222  A    between atoms: _541  and  _544
REMARK  223  A    between atoms: _544  and  _545
REMARK  224  A    between atoms: _551  and  _553
REMARK  225  A    between atoms: _553  and  _554
REMARK  226  A    between atoms: _553  and  _556
REMARK  227  A    between atoms: _556  and  _557
REMARK  228  A    between atoms: _562  and  _564
REMARK  229  A    between atoms: _564  and  _565
REMARK  230  A    between atoms: _564  and  _567
REMARK  231  A    between atoms: _567  and  _568
REMARK  232  A    between atoms: _571  and  _573
REMARK  233  A    between atoms: _573  and  _574
REMARK  234  A    between atoms: _573  and  _576
REMARK  235  A    between atoms: _576  and  _577
REMARK  236  A    between atoms: _582  and  _583
REMARK                            x       y       z     vdW  Elec       q    Type
REMARK                         _______ _______ _______ _____ _____    ______ ____
ROOT
ATOM      1  O   HOH     1      11.681  20.860   1.786  0.00  0.00    +0.000 OA
ENDROOT
TORSDOF 0
REMARK  Name = ../refined-set-2016/4h75/4h75_pocket.pdb
REMARK  236 active torsions:
REMARK  status: ('A' for Active; 'I' for Inactive)
REMARK    1  A    between atoms: _1  and  _3
REMARK    2  A    between atoms: _3  and  _4
REMARK    3  A    between atoms: _3  and  _6
REMARK    4  A    between atoms: _6  and  _7
REMARK    5  A    between atoms: _17  and  _19
REMARK    6  A    between atoms: _19  and  _20
REMARK    7  A    between atoms: _19  and  _22
REMARK    8  A    between atoms: _22  and  _23
REMARK    9  A    between atoms: _23  and  _24
REMARK   10  A    between atoms: _24  and  _25
REMARK   11  A    between atoms: _25  and  _26
REMARK   12  A    between atoms: _30  and  _32
REMARK   13  A    between atoms: _32  and  _33
REMARK   14  A    between atoms: _32  and  _35
REMARK   15  A    between atoms: _35  and  _36
REMARK   16  A    between atoms: _41  and  _42
REMARK   17  A    between atoms: _44  and  _46
REMARK   18  A    between atoms: _46  and  _47
REMARK   19  A    between atoms: _46  and  _49
REMARK   20  A    between atoms: _49  and  _50
REMARK   21  A    between atoms: _53  and  _55
REMARK   22  A    between atoms: _55  and  _56
REMARK   23  A    between atoms: _58  and  _60
REMARK   24  A    between atoms: _60  and  _61
REMARK   25  A    between atoms: _60  and  _63
REMARK   26  A    between atoms: _63  and  _64
REMARK   27  A    between atoms: _70  and  _72
REMARK   28  A    between atoms: _72  and  _73
REMARK   29  A    between atoms: _72  and  _75
REMARK   30  A    between atoms: _75  and  _76
REMARK   31  A    between atoms: _79  and  _81
REMARK   32  A    between atoms: _81  and  _82
REMARK   33  A    between atoms: _81  and  _84
REMARK   34  A    between atoms: _86  and  _88
REMARK   35  A    between atoms: _88  and  _89
REMARK   36  A    between atoms: _88  and  _91
REMARK   37  A    between atoms: _94  and  _96
REMARK   38  A    between atoms: _96  and  _97
REMARK   39  A    between atoms: _96  and  _99
REMARK   40  A    between atoms: _99  and  _100
REMARK   41  A    between atoms: _105  and  _106
REMARK   42  A    between atoms: _108  and  _110
REMARK   43  A    between atoms: _110  and  _111
REMARK   44  A    between atoms: _110  and  _113
REMARK   45  A    between atoms: _113  and  _114
REMARK   46  A    between atoms: _119  and  _121
REMARK   47  A    between atoms: _121  and  _122
REMARK   48  A    between atoms: _121  and  _124
REMARK   49  A    between atoms: _124  and  _125
REMARK   50  A    between atoms: _125  and  _126
REMARK   51  A    between atoms: _128  and  _130
REMARK   52  A    between atoms: _130  and  _131
REMARK   53  A    between atoms: _130  and  _133
REMARK   54  A    between atoms: _133  and  _134
REMARK   55  A    between atoms: _140  and  _142
REMARK   56  A    between atoms: _142  and  _143
REMARK   57  A    between atoms: _142  and  _145
REMARK   58  A    between atoms: _145  and  _146
REMARK   59  A    between atoms: _146  and  _147
REMARK   60  A    between atoms: _150  and  _152
REMARK   61  A    between atoms: _152  and  _153
REMARK   62  A    between atoms: _152  and  _155
REMARK   63  A    between atoms: _155  and  _156
REMARK   64  A    between atoms: _159  and  _161
REMARK   65  A    between atoms: _161  and  _162
REMARK   66  A    between atoms: _161  and  _164
REMARK   67  A    between atoms: _164  and  _165
REMARK   68  A    between atoms: _165  and  _166
REMARK   69  A    between atoms: _169  and  _171
REMARK   70  A    between atoms: _171  and  _172
REMARK   71  A    between atoms: _171  and  _174
REMARK   72  A    between atoms: _174  and  _175
REMARK   73  A    between atoms: _178  and  _180
REMARK   74  A    between atoms: _180  and  _181
REMARK   75  A    between atoms: _183  and  _185
REMARK   76  A    between atoms: _185  and  _186
REMARK   77  A    between atoms: _185  and  _188
REMARK   78  A    between atoms: _188  and  _189
REMARK   79  A    between atoms: _191  and  _193
REMARK   80  A    between atoms: _193  and  _194
REMARK   81  A    between atoms: _193  and  _196
REMARK   82  A    between atoms: _196  and  _197
REMARK   83  A    between atoms: _197  and  _198
REMARK   84  A    between atoms: _198  and  _199
REMARK   85  A    between atoms: _199  and  _200
REMARK   86  A    between atoms: _204  and  _206
REMARK   87  A    between atoms: _206  and  _207
REMARK   88  A    between atoms: _206  and  _209
REMARK   89  A    between atoms: _209  and  _210
REMARK   90  A    between atoms: _213  and  _215
REMARK   91  A    between atoms: _215  and  _216
REMARK   92  A    between atoms: _215  and  _218
REMARK   93  A    between atoms: _218  and  _219
REMARK   94  A    between atoms: _219  and  _220
REMARK   95  A    between atoms: _223  and  _225
REMARK   96  A    between atoms: _225  and  _226
REMARK   97  A    between atoms: _225  and  _228
REMARK   98  A    between atoms: _228  and  _229
REMARK   99  A    between atoms: _239  and  _241
REMARK  100  A    between atoms: _241  and  _242
REMARK  101  A    between atoms: _241  and  _244
REMARK  102  A    between atoms: _244  and  _245
REMARK  103  A    between atoms: _245  and  _246
REMARK  104  A    between atoms: _246  and  _247
REMARK  105  A    between atoms: _256  and  _258
REMARK  106  A    between atoms: _258  and  _259
REMARK  107  A    between atoms: _258  and  _261
REMARK  108  A    between atoms: _261  and  _262
REMARK  109  A    between atoms: _265  and  _267
REMARK  110  A    between atoms: _267  and  _268
REMARK  111  A    between atoms: _267  and  _270
REMARK  112  A    between atoms: _270  and  _271
REMARK  113  A    between atoms: _281  and  _283
REMARK  114  A    between atoms: _283  and  _284
REMARK  115  A    between atoms: _283  and  _286
REMARK  116  A    between atoms: _286  and  _287
REMARK  117  A    between atoms: _293  and  _295
REMARK  118  A    between atoms: _295  and  _296
REMARK  119  A    between atoms: _295  and  _298
REMARK  120  A    between atoms: _298  and  _299
REMARK  121  A    between atoms: _302  and  _304
REMARK  122  A    between atoms: _304  and  _305
REMARK  123  A    between atoms: _304  and  _307
REMARK  124  A    between atoms: _307  and  _308
REMARK  125  A    between atoms: _311  and  _313
REMARK  126  A    between atoms: _313  and  _314
REMARK  127  A    between atoms: _313  and  _316
REMARK  128  A    between atoms: _316  and  _317
REMARK  129  A    between atoms: _322  and  _323
REMARK  130  A    between atoms: _325  and  _327
REMARK  131  A    between atoms: _327  and  _328
REMARK  132  A    between atoms: _327  and  _330
REMARK  133  A    between atoms: _330  and  _331
REMARK  134  A    between atoms: _331  and  _332
REMARK  135  A    between atoms: _335  and  _337
REMARK  136  A    between atoms: _337  and  _338
REMARK  137  A    between atoms: _337  and  _340
REMARK  138  A    between atoms: _340  and  _341
REMARK  139  A    between atoms: _341  and  _342
REMARK  140  A    between atoms: _342  and  _343
REMARK  141  A    between atoms: _343  and  _344
REMARK  142  A    between atoms: _348  and  _350
REMARK  143  A    between atoms: _350  and  _351
REMARK  144  A    between atoms: _350  and  _353
REMARK  145  A    between atoms: _353  and  _354
REMARK  146  A    between atoms: _358  and  _359
REMARK  147  A    between atoms: _364  and  _366
REMARK  148  A    between atoms: _366  and  _367
REMARK  149  A    between atoms: _366  and  _369
REMARK  150  A    between atoms: _372  and  _374
REMARK  151  A    between atoms: _374  and  _375
REMARK  152  A    between atoms: _374  and  _377
REMARK  153  A    between atoms: _377  and  _378
REMARK  154  A    between atoms: _381  and  _383
REMARK  155  A    between atoms: _383  and  _384
REMARK  156  A    between atoms: _383  and  _386
REMARK  157  A    between atoms: _386  and  _387
REMARK  158  A    between atoms: _392  and  _393
REMARK  159  A    between atoms: _395  and  _397
REMARK  160  A    between atoms: _397  and  _398
REMARK  161  A    between atoms: _397  and  _400
REMARK  162  A    between atoms: _400  and  _401
REMARK  163  A    between atoms: _401  and  _402
REMARK  164  A    between atoms: _404  and  _406
REMARK  165  A    between atoms: _406  and  _407
REMARK  166  A    between atoms: _406  and  _409
REMARK  167  A    between atoms: _409  and  _410
REMARK  168  A    between atoms: _415  and  _416
REMARK  169  A    between atoms: _418  and  _420
REMARK  170  A    between atoms: _420  and  _421
REMARK  171  A    between atoms: _420  and  _423
REMARK  172  A    between atoms: _423  and  _424
REMARK  173  A    between atoms: _424  and  _425
REMARK  174  A    between atoms: _430  and  _432
REMARK  175  A    between atoms: _432  and  _433
REMARK  176  A    between atoms: _432  and  _435
REMARK  177  A    between atoms: _435  and  _436
REMARK  178  A    between atoms: _439  and  _441
REMARK  179  A    between atoms: _441  and  _442
REMARK  180  A    between atoms: _441  and  _444
REMARK  181  A    between atoms: _444  and  _445
REMARK  182  A    between atoms: _448  and  _450
REMARK  183  A    between atoms: _450  and  _451
REMARK  184  A    between atoms: _450  and  _453
REMARK  185  A    between atoms: _453  and  _454
REMARK  186  A    between atoms: _457  and  _459
REMARK  187  A    between atoms: _459  and  _460
REMARK  188  A    between atoms: _459  and  _462
REMARK  189  A    between atoms: _462  and  _463
REMARK  190  A    between atoms: _466  and  _468
REMARK  191  A    between atoms: _468  and  _469
REMARK  192  A    between atoms: _468  and  _471
REMARK  193  A    between atoms: _471  and  _472
REMARK  194  A    between atoms: _477  and  _478
REMARK  195  A    between atoms: _480  and  _482
REMARK  196  A    between atoms: _482  and  _483
REMARK  197  A    between atoms: _482  and  _485
REMARK  198  A    between atoms: _485  and  _486
REMARK  199  A    between atoms: _486  and  _487
REMARK  200  A    between atoms: _490  and  _492
REMARK  201  A    between atoms: _492  and  _493
REMARK  202  A    between atoms: _495  and  _497
REMARK  203  A    between atoms: _497  and  _498
REMARK  204  A    between atoms: _497  and  _500
REMARK  205  A    between atoms: _500  and  _501
REMARK  206  A    between atoms: _504  and  _506
REMARK  207  A    between atoms: _506  and  _507
REMARK  208  A    between atoms: _506  and  _509
REMARK  209  A    between atoms: _509  and  _510
REMARK  210  A    between atoms: _513  and  _515
REMARK  211  A    between atoms: _515  and  _516
REMARK  212  A    between atoms: _515  and  _518
REMARK  213  A    between atoms: _518  and  _519
REMARK  214  A    between atoms: _519  and  _520
REMARK  215  A    between atoms: _520  and  _521
REMARK  216  A    between atoms: _530  and  _532
REMARK  217  A    between atoms: _532  and  _533
REMARK  218  A    between atoms: _532  and  _535
REMARK  219  A    between atoms: _535  and  _536
REMARK  220  A    between atoms: _539  and  _541
REMARK  221  A    between atoms: _541  and  _542
REMARK  222  A    between atoms: _541  and  _544
REMARK  223  A    between atoms: _544  and  _545
REMARK  224  A    between atoms: _551  and  _553
REMARK  225  A    between atoms: _553  and  _554
REMARK  226  A    between atoms: _553  and  _556
REMARK  227  A    between atoms: _556  and  _557
REMARK  228  A    between atoms: _562  and  _564
REMARK  229  A    between atoms: _564  and  _565
REMARK  230  A    between atoms: _564  and  _567
REMARK  231  A    between atoms: _567  and  _568
REMARK  232  A    between atoms: _571  and  _573
REMARK  233  A    between atoms: _573  and  _574
REMARK  234  A    between atoms: _573  and  _576
REMARK  235  A    between atoms: _576  and  _577
REMARK  236  A    between atoms: _582  and  _583
REMARK                            x       y       z     vdW  Elec       q    Type
REMARK                         _______ _______ _______ _____ _____    ______ ____
ROOT
ATOM      1  O   HOH     1      22.535   7.577  -3.773  0.00  0.00    +0.000 OA
ENDROOT
TORSDOF 0
REMARK  Name = ../refined-set-2016/4h75/4h75_pocket.pdb
REMARK  236 active torsions:
REMARK  status: ('A' for Active; 'I' for Inactive)
REMARK    1  A    between atoms: _1  and  _3
REMARK    2  A    between atoms: _3  and  _4
REMARK    3  A    between atoms: _3  and  _6
REMARK    4  A    between atoms: _6  and  _7
REMARK    5  A    between atoms: _17  and  _19
REMARK    6  A    between atoms: _19  and  _20
REMARK    7  A    between atoms: _19  and  _22
REMARK    8  A    between atoms: _22  and  _23
REMARK    9  A    between atoms: _23  and  _24
REMARK   10  A    between atoms: _24  and  _25
REMARK   11  A    between atoms: _25  and  _26
REMARK   12  A    between atoms: _30  and  _32
REMARK   13  A    between atoms: _32  and  _33
REMARK   14  A    between atoms: _32  and  _35
REMARK   15  A    between atoms: _35  and  _36
REMARK   16  A    between atoms: _41  and  _42
REMARK   17  A    between atoms: _44  and  _46
REMARK   18  A    between atoms: _46  and  _47
REMARK   19  A    between atoms: _46  and  _49
REMARK   20  A    between atoms: _49  and  _50
REMARK   21  A    between atoms: _53  and  _55
REMARK   22  A    between atoms: _55  and  _56
REMARK   23  A    between atoms: _58  and  _60
REMARK   24  A    between atoms: _60  and  _61
REMARK   25  A    between atoms: _60  and  _63
REMARK   26  A    between atoms: _63  and  _64
REMARK   27  A    between atoms: _70  and  _72
REMARK   28  A    between atoms: _72  and  _73
REMARK   29  A    between atoms: _72  and  _75
REMARK   30  A    between atoms: _75  and  _76
REMARK   31  A    between atoms: _79  and  _81
REMARK   32  A    between atoms: _81  and  _82
REMARK   33  A    between atoms: _81  and  _84
REMARK   34  A    between atoms: _86  and  _88
REMARK   35  A    between atoms: _88  and  _89
REMARK   36  A    between atoms: _88  and  _91
REMARK   37  A    between atoms: _94  and  _96
REMARK   38  A    between atoms: _96  and  _97
REMARK   39  A    between atoms: _96  and  _99
REMARK   40  A    between atoms: _99  and  _100
REMARK   41  A    between atoms: _105  and  _106
REMARK   42  A    between atoms: _108  and  _110
REMARK   43  A    between atoms: _110  and  _111
REMARK   44  A    between atoms: _110  and  _113
REMARK   45  A    between atoms: _113  and  _114
REMARK   46  A    between atoms: _119  and  _121
REMARK   47  A    between atoms: _121  and  _122
REMARK   48  A    between atoms: _121  and  _124
REMARK   49  A    between atoms: _124  and  _125
REMARK   50  A    between atoms: _125  and  _126
REMARK   51  A    between atoms: _128  and  _130
REMARK   52  A    between atoms: _130  and  _131
REMARK   53  A    between atoms: _130  and  _133
REMARK   54  A    between atoms: _133  and  _134
REMARK   55  A    between atoms: _140  and  _142
REMARK   56  A    between atoms: _142  and  _143
REMARK   57  A    between atoms: _142  and  _145
REMARK   58  A    between atoms: _145  and  _146
REMARK   59  A    between atoms: _146  and  _147
REMARK   60  A    between atoms: _150  and  _152
REMARK   61  A    between atoms: _152  and  _153
REMARK   62  A    between atoms: _152  and  _155
REMARK   63  A    between atoms: _155  and  _156
REMARK   64  A    between atoms: _159  and  _161
REMARK   65  A    between atoms: _161  and  _162
REMARK   66  A    between atoms: _161  and  _164
REMARK   67  A    between atoms: _164  and  _165
REMARK   68  A    between atoms: _165  and  _166
REMARK   69  A    between atoms: _169  and  _171
REMARK   70  A    between atoms: _171  and  _172
REMARK   71  A    between atoms: _171  and  _174
REMARK   72  A    between atoms: _174  and  _175
REMARK   73  A    between atoms: _178  and  _180
REMARK   74  A    between atoms: _180  and  _181
REMARK   75  A    between atoms: _183  and  _185
REMARK   76  A    between atoms: _185  and  _186
REMARK   77  A    between atoms: _185  and  _188
REMARK   78  A    between atoms: _188  and  _189
REMARK   79  A    between atoms: _191  and  _193
REMARK   80  A    between atoms: _193  and  _194
REMARK   81  A    between atoms: _193  and  _196
REMARK   82  A    between atoms: _196  and  _197
REMARK   83  A    between atoms: _197  and  _198
REMARK   84  A    between atoms: _198  and  _199
REMARK   85  A    between atoms: _199  and  _200
REMARK   86  A    between atoms: _204  and  _206
REMARK   87  A    between atoms: _206  and  _207
REMARK   88  A    between atoms: _206  and  _209
REMARK   89  A    between atoms: _209  and  _210
REMARK   90  A    between atoms: _213  and  _215
REMARK   91  A    between atoms: _215  and  _216
REMARK   92  A    between atoms: _215  and  _218
REMARK   93  A    between atoms: _218  and  _219
REMARK   94  A    between atoms: _219  and  _220
REMARK   95  A    between atoms: _223  and  _225
REMARK   96  A    between atoms: _225  and  _226
REMARK   97  A    between atoms: _225  and  _228
REMARK   98  A    between atoms: _228  and  _229
REMARK   99  A    between atoms: _239  and  _241
REMARK  100  A    between atoms: _241  and  _242
REMARK  101  A    between atoms: _241  and  _244
REMARK  102  A    between atoms: _244  and  _245
REMARK  103  A    between atoms: _245  and  _246
REMARK  104  A    between atoms: _246  and  _247
REMARK  105  A    between atoms: _256  and  _258
REMARK  106  A    between atoms: _258  and  _259
REMARK  107  A    between atoms: _258  and  _261
REMARK  108  A    between atoms: _261  and  _262
REMARK  109  A    between atoms: _265  and  _267
REMARK  110  A    between atoms: _267  and  _268
REMARK  111  A    between atoms: _267  and  _270
REMARK  112  A    between atoms: _270  and  _271
REMARK  113  A    between atoms: _281  and  _283
REMARK  114  A    between atoms: _283  and  _284
REMARK  115  A    between atoms: _283  and  _286
REMARK  116  A    between atoms: _286  and  _287
REMARK  117  A    between atoms: _293  and  _295
REMARK  118  A    between atoms: _295  and  _296
REMARK  119  A    between atoms: _295  and  _298
REMARK  120  A    between atoms: _298  and  _299
REMARK  121  A    between atoms: _302  and  _304
REMARK  122  A    between atoms: _304  and  _305
REMARK  123  A    between atoms: _304  and  _307
REMARK  124  A    between atoms: _307  and  _308
REMARK  125  A    between atoms: _311  and  _313
REMARK  126  A    between atoms: _313  and  _314
REMARK  127  A    between atoms: _313  and  _316
REMARK  128  A    between atoms: _316  and  _317
REMARK  129  A    between atoms: _322  and  _323
REMARK  130  A    between atoms: _325  and  _327
REMARK  131  A    between atoms: _327  and  _328
REMARK  132  A    between atoms: _327  and  _330
REMARK  133  A    between atoms: _330  and  _331
REMARK  134  A    between atoms: _331  and  _332
REMARK  135  A    between atoms: _335  and  _337
REMARK  136  A    between atoms: _337  and  _338
REMARK  137  A    between atoms: _337  and  _340
REMARK  138  A    between atoms: _340  and  _341
REMARK  139  A    between atoms: _341  and  _342
REMARK  140  A    between atoms: _342  and  _343
REMARK  141  A    between atoms: _343  and  _344
REMARK  142  A    between atoms: _348  and  _350
REMARK  143  A    between atoms: _350  and  _351
REMARK  144  A    between atoms: _350  and  _353
REMARK  145  A    between atoms: _353  and  _354
REMARK  146  A    between atoms: _358  and  _359
REMARK  147  A    between atoms: _364  and  _366
REMARK  148  A    between atoms: _366  and  _367
REMARK  149  A    between atoms: _366  and  _369
REMARK  150  A    between atoms: _372  and  _374
REMARK  151  A    between atoms: _374  and  _375
REMARK  152  A    between atoms: _374  and  _377
REMARK  153  A    between atoms: _377  and  _378
REMARK  154  A    between atoms: _381  and  _383
REMARK  155  A    between atoms: _383  and  _384
REMARK  156  A    between atoms: _383  and  _386
REMARK  157  A    between atoms: _386  and  _387
REMARK  158  A    between atoms: _392  and  _393
REMARK  159  A    between atoms: _395  and  _397
REMARK  160  A    between atoms: _397  and  _398
REMARK  161  A    between atoms: _397  and  _400
REMARK  162  A    between atoms: _400  and  _401
REMARK  163  A    between atoms: _401  and  _402
REMARK  164  A    between atoms: _404  and  _406
REMARK  165  A    between atoms: _406  and  _407
REMARK  166  A    between atoms: _406  and  _409
REMARK  167  A    between atoms: _409  and  _410
REMARK  168  A    between atoms: _415  and  _416
REMARK  169  A    between atoms: _418  and  _420
REMARK  170  A    between atoms: _420  and  _421
REMARK  171  A    between atoms: _420  and  _423
REMARK  172  A    between atoms: _423  and  _424
REMARK  173  A    between atoms: _424  and  _425
REMARK  174  A    between atoms: _430  and  _432
REMARK  175  A    between atoms: _432  and  _433
REMARK  176  A    between atoms: _432  and  _435
REMARK  177  A    between atoms: _435  and  _436
REMARK  178  A    between atoms: _439  and  _441
REMARK  179  A    between atoms: _441  and  _442
REMARK  180  A    between atoms: _441  and  _444
REMARK  181  A    between atoms: _444  and  _445
REMARK  182  A    between atoms: _448  and  _450
REMARK  183  A    between atoms: _450  and  _451
REMARK  184  A    between atoms: _450  and  _453
REMARK  185  A    between atoms: _453  and  _454
REMARK  186  A    between atoms: _457  and  _459
REMARK  187  A    between atoms: _459  and  _460
REMARK  188  A    between atoms: _459  and  _462
REMARK  189  A    between atoms: _462  and  _463
REMARK  190  A    between atoms: _466  and  _468
REMARK  191  A    between atoms: _468  and  _469
REMARK  192  A    between atoms: _468  and  _471
REMARK  193  A    between atoms: _471  and  _472
REMARK  194  A    between atoms: _477  and  _478
REMARK  195  A    between atoms: _480  and  _482
REMARK  196  A    between atoms: _482  and  _483
REMARK  197  A    between atoms: _482  and  _485
REMARK  198  A    between atoms: _485  and  _486
REMARK  199  A    between atoms: _486  and  _487
REMARK  200  A    between atoms: _490  and  _492
REMARK  201  A    between atoms: _492  and  _493
REMARK  202  A    between atoms: _495  and  _497
REMARK  203  A    between atoms: _497  and  _498
REMARK  204  A    between atoms: _497  and  _500
REMARK  205  A    between atoms: _500  and  _501
REMARK  206  A    between atoms: _504  and  _506
REMARK  207  A    between atoms: _506  and  _507
REMARK  208  A    between atoms: _506  and  _509
REMARK  209  A    between atoms: _509  and  _510
REMARK  210  A    between atoms: _513  and  _515
REMARK  211  A    between atoms: _515  and  _516
REMARK  212  A    between atoms: _515  and  _518
REMARK  213  A    between atoms: _518  and  _519
REMARK  214  A    between atoms: _519  and  _520
REMARK  215  A    between atoms: _520  and  _521
REMARK  216  A    between atoms: _530  and  _532
REMARK  217  A    between atoms: _532  and  _533
REMARK  218  A    between atoms: _532  and  _535
REMARK  219  A    between atoms: _535  and  _536
REMARK  220  A    between atoms: _539  and  _541
REMARK  221  A    between atoms: _541  and  _542
REMARK  222  A    between atoms: _541  and  _544
REMARK  223  A    between atoms: _544  and  _545
REMARK  224  A    between atoms: _551  and  _553
REMARK  225  A    between atoms: _553  and  _554
REMARK  226  A    between atoms: _553  and  _556
REMARK  227  A    between atoms: _556  and  _557
REMARK  228  A    between atoms: _562  and  _564
REMARK  229  A    between atoms: _564  and  _565
REMARK  230  A    between atoms: _564  and  _567
REMARK  231  A    between atoms: _567  and  _568
REMARK  232  A    between atoms: _571  and  _573
REMARK  233  A    between atoms: _573  and  _574
REMARK  234  A    between atoms: _573  and  _576
REMARK  235  A    between atoms: _576  and  _577
REMARK  236  A    between atoms: _582  and  _583
REMARK                            x       y       z     vdW  Elec       q    Type
REMARK                         _______ _______ _______ _____ _____    ______ ____
ROOT
ATOM      1  O   HOH     1      18.098  16.290  -2.085  0.00  0.00    +0.000 OA
ENDROOT
TORSDOF 0
REMARK  Name = ../refined-set-2016/4h75/4h75_pocket.pdb
REMARK  236 active torsions:
REMARK  status: ('A' for Active; 'I' for Inactive)
REMARK    1  A    between atoms: _1  and  _3
REMARK    2  A    between atoms: _3  and  _4
REMARK    3  A    between atoms: _3  and  _6
REMARK    4  A    between atoms: _6  and  _7
REMARK    5  A    between atoms: _17  and  _19
REMARK    6  A    between atoms: _19  and  _20
REMARK    7  A    between atoms: _19  and  _22
REMARK    8  A    between atoms: _22  and  _23
REMARK    9  A    between atoms: _23  and  _24
REMARK   10  A    between atoms: _24  and  _25
REMARK   11  A    between atoms: _25  and  _26
REMARK   12  A    between atoms: _30  and  _32
REMARK   13  A    between atoms: _32  and  _33
REMARK   14  A    between atoms: _32  and  _35
REMARK   15  A    between atoms: _35  and  _36
REMARK   16  A    between atoms: _41  and  _42
REMARK   17  A    between atoms: _44  and  _46
REMARK   18  A    between atoms: _46  and  _47
REMARK   19  A    between atoms: _46  and  _49
REMARK   20  A    between atoms: _49  and  _50
REMARK   21  A    between atoms: _53  and  _55
REMARK   22  A    between atoms: _55  and  _56
REMARK   23  A    between atoms: _58  and  _60
REMARK   24  A    between atoms: _60  and  _61
REMARK   25  A    between atoms: _60  and  _63
REMARK   26  A    between atoms: _63  and  _64
REMARK   27  A    between atoms: _70  and  _72
REMARK   28  A    between atoms: _72  and  _73
REMARK   29  A    between atoms: _72  and  _75
REMARK   30  A    between atoms: _75  and  _76
REMARK   31  A    between atoms: _79  and  _81
REMARK   32  A    between atoms: _81  and  _82
REMARK   33  A    between atoms: _81  and  _84
REMARK   34  A    between atoms: _86  and  _88
REMARK   35  A    between atoms: _88  and  _89
REMARK   36  A    between atoms: _88  and  _91
REMARK   37  A    between atoms: _94  and  _96
REMARK   38  A    between atoms: _96  and  _97
REMARK   39  A    between atoms: _96  and  _99
REMARK   40  A    between atoms: _99  and  _100
REMARK   41  A    between atoms: _105  and  _106
REMARK   42  A    between atoms: _108  and  _110
REMARK   43  A    between atoms: _110  and  _111
REMARK   44  A    between atoms: _110  and  _113
REMARK   45  A    between atoms: _113  and  _114
REMARK   46  A    between atoms: _119  and  _121
REMARK   47  A    between atoms: _121  and  _122
REMARK   48  A    between atoms: _121  and  _124
REMARK   49  A    between atoms: _124  and  _125
REMARK   50  A    between atoms: _125  and  _126
REMARK   51  A    between atoms: _128  and  _130
REMARK   52  A    between atoms: _130  and  _131
REMARK   53  A    between atoms: _130  and  _133
REMARK   54  A    between atoms: _133  and  _134
REMARK   55  A    between atoms: _140  and  _142
REMARK   56  A    between atoms: _142  and  _143
REMARK   57  A    between atoms: _142  and  _145
REMARK   58  A    between atoms: _145  and  _146
REMARK   59  A    between atoms: _146  and  _147
REMARK   60  A    between atoms: _150  and  _152
REMARK   61  A    between atoms: _152  and  _153
REMARK   62  A    between atoms: _152  and  _155
REMARK   63  A    between atoms: _155  and  _156
REMARK   64  A    between atoms: _159  and  _161
REMARK   65  A    between atoms: _161  and  _162
REMARK   66  A    between atoms: _161  and  _164
REMARK   67  A    between atoms: _164  and  _165
REMARK   68  A    between atoms: _165  and  _166
REMARK   69  A    between atoms: _169  and  _171
REMARK   70  A    between atoms: _171  and  _172
REMARK   71  A    between atoms: _171  and  _174
REMARK   72  A    between atoms: _174  and  _175
REMARK   73  A    between atoms: _178  and  _180
REMARK   74  A    between atoms: _180  and  _181
REMARK   75  A    between atoms: _183  and  _185
REMARK   76  A    between atoms: _185  and  _186
REMARK   77  A    between atoms: _185  and  _188
REMARK   78  A    between atoms: _188  and  _189
REMARK   79  A    between atoms: _191  and  _193
REMARK   80  A    between atoms: _193  and  _194
REMARK   81  A    between atoms: _193  and  _196
REMARK   82  A    between atoms: _196  and  _197
REMARK   83  A    between atoms: _197  and  _198
REMARK   84  A    between atoms: _198  and  _199
REMARK   85  A    between atoms: _199  and  _200
REMARK   86  A    between atoms: _204  and  _206
REMARK   87  A    between atoms: _206  and  _207
REMARK   88  A    between atoms: _206  and  _209
REMARK   89  A    between atoms: _209  and  _210
REMARK   90  A    between atoms: _213  and  _215
REMARK   91  A    between atoms: _215  and  _216
REMARK   92  A    between atoms: _215  and  _218
REMARK   93  A    between atoms: _218  and  _219
REMARK   94  A    between atoms: _219  and  _220
REMARK   95  A    between atoms: _223  and  _225
REMARK   96  A    between atoms: _225  and  _226
REMARK   97  A    between atoms: _225  and  _228
REMARK   98  A    between atoms: _228  and  _229
REMARK   99  A    between atoms: _239  and  _241
REMARK  100  A    between atoms: _241  and  _242
REMARK  101  A    between atoms: _241  and  _244
REMARK  102  A    between atoms: _244  and  _245
REMARK  103  A    between atoms: _245  and  _246
REMARK  104  A    between atoms: _246  and  _247
REMARK  105  A    between atoms: _256  and  _258
REMARK  106  A    between atoms: _258  and  _259
REMARK  107  A    between atoms: _258  and  _261
REMARK  108  A    between atoms: _261  and  _262
REMARK  109  A    between atoms: _265  and  _267
REMARK  110  A    between atoms: _267  and  _268
REMARK  111  A    between atoms: _267  and  _270
REMARK  112  A    between atoms: _270  and  _271
REMARK  113  A    between atoms: _281  and  _283
REMARK  114  A    between atoms: _283  and  _284
REMARK  115  A    between atoms: _283  and  _286
REMARK  116  A    between atoms: _286  and  _287
REMARK  117  A    between atoms: _293  and  _295
REMARK  118  A    between atoms: _295  and  _296
REMARK  119  A    between atoms: _295  and  _298
REMARK  120  A    between atoms: _298  and  _299
REMARK  121  A    between atoms: _302  and  _304
REMARK  122  A    between atoms: _304  and  _305
REMARK  123  A    between atoms: _304  and  _307
REMARK  124  A    between atoms: _307  and  _308
REMARK  125  A    between atoms: _311  and  _313
REMARK  126  A    between atoms: _313  and  _314
REMARK  127  A    between atoms: _313  and  _316
REMARK  128  A    between atoms: _316  and  _317
REMARK  129  A    between atoms: _322  and  _323
REMARK  130  A    between atoms: _325  and  _327
REMARK  131  A    between atoms: _327  and  _328
REMARK  132  A    between atoms: _327  and  _330
REMARK  133  A    between atoms: _330  and  _331
REMARK  134  A    between atoms: _331  and  _332
REMARK  135  A    between atoms: _335  and  _337
REMARK  136  A    between atoms: _337  and  _338
REMARK  137  A    between atoms: _337  and  _340
REMARK  138  A    between atoms: _340  and  _341
REMARK  139  A    between atoms: _341  and  _342
REMARK  140  A    between atoms: _342  and  _343
REMARK  141  A    between atoms: _343  and  _344
REMARK  142  A    between atoms: _348  and  _350
REMARK  143  A    between atoms: _350  and  _351
REMARK  144  A    between atoms: _350  and  _353
REMARK  145  A    between atoms: _353  and  _354
REMARK  146  A    between atoms: _358  and  _359
REMARK  147  A    between atoms: _364  and  _366
REMARK  148  A    between atoms: _366  and  _367
REMARK  149  A    between atoms: _366  and  _369
REMARK  150  A    between atoms: _372  and  _374
REMARK  151  A    between atoms: _374  and  _375
REMARK  152  A    between atoms: _374  and  _377
REMARK  153  A    between atoms: _377  and  _378
REMARK  154  A    between atoms: _381  and  _383
REMARK  155  A    between atoms: _383  and  _384
REMARK  156  A    between atoms: _383  and  _386
REMARK  157  A    between atoms: _386  and  _387
REMARK  158  A    between atoms: _392  and  _393
REMARK  159  A    between atoms: _395  and  _397
REMARK  160  A    between atoms: _397  and  _398
REMARK  161  A    between atoms: _397  and  _400
REMARK  162  A    between atoms: _400  and  _401
REMARK  163  A    between atoms: _401  and  _402
REMARK  164  A    between atoms: _404  and  _406
REMARK  165  A    between atoms: _406  and  _407
REMARK  166  A    between atoms: _406  and  _409
REMARK  167  A    between atoms: _409  and  _410
REMARK  168  A    between atoms: _415  and  _416
REMARK  169  A    between atoms: _418  and  _420
REMARK  170  A    between atoms: _420  and  _421
REMARK  171  A    between atoms: _420  and  _423
REMARK  172  A    between atoms: _423  and  _424
REMARK  173  A    between atoms: _424  and  _425
REMARK  174  A    between atoms: _430  and  _432
REMARK  175  A    between atoms: _432  and  _433
REMARK  176  A    between atoms: _432  and  _435
REMARK  177  A    between atoms: _435  and  _436
REMARK  178  A    between atoms: _439  and  _441
REMARK  179  A    between atoms: _441  and  _442
REMARK  180  A    between atoms: _441  and  _444
REMARK  181  A    between atoms: _444  and  _445
REMARK  182  A    between atoms: _448  and  _450
REMARK  183  A    between atoms: _450  and  _451
REMARK  184  A    between atoms: _450  and  _453
REMARK  185  A    between atoms: _453  and  _454
REMARK  186  A    between atoms: _457  and  _459
REMARK  187  A    between atoms: _459  and  _460
REMARK  188  A    between atoms: _459  and  _462
REMARK  189  A    between atoms: _462  and  _463
REMARK  190  A    between atoms: _466  and  _468
REMARK  191  A    between atoms: _468  and  _469
REMARK  192  A    between atoms: _468  and  _471
REMARK  193  A    between atoms: _471  and  _472
REMARK  194  A    between atoms: _477  and  _478
REMARK  195  A    between atoms: _480  and  _482
REMARK  196  A    between atoms: _482  and  _483
REMARK  197  A    between atoms: _482  and  _485
REMARK  198  A    between atoms: _485  and  _486
REMARK  199  A    between atoms: _486  and  _487
REMARK  200  A    between atoms: _490  and  _492
REMARK  201  A    between atoms: _492  and  _493
REMARK  202  A    between atoms: _495  and  _497
REMARK  203  A    between atoms: _497  and  _498
REMARK  204  A    between atoms: _497  and  _500
REMARK  205  A    between atoms: _500  and  _501
REMARK  206  A    between atoms: _504  and  _506
REMARK  207  A    between atoms: _506  and  _507
REMARK  208  A    between atoms: _506  and  _509
REMARK  209  A    between atoms: _509  and  _510
REMARK  210  A    between atoms: _513  and  _515
REMARK  211  A    between atoms: _515  and  _516
REMARK  212  A    between atoms: _515  and  _518
REMARK  213  A    between atoms: _518  and  _519
REMARK  214  A    between atoms: _519  and  _520
REMARK  215  A    between atoms: _520  and  _521
REMARK  216  A    between atoms: _530  and  _532
REMARK  217  A    between atoms: _532  and  _533
REMARK  218  A    between atoms: _532  and  _535
REMARK  219  A    between atoms: _535  and  _536
REMARK  220  A    between atoms: _539  and  _541
REMARK  221  A    between atoms: _541  and  _542
REMARK  222  A    between atoms: _541  and  _544
REMARK  223  A    between atoms: _544  and  _545
REMARK  224  A    between atoms: _551  and  _553
REMARK  225  A    between atoms: _553  and  _554
REMARK  226  A    between atoms: _553  and  _556
REMARK  227  A    between atoms: _556  and  _557
REMARK  228  A    between atoms: _562  and  _564
REMARK  229  A    between atoms: _564  and  _565
REMARK  230  A    between atoms: _564  and  _567
REMARK  231  A    between atoms: _567  and  _568
REMARK  232  A    between atoms: _571  and  _573
REMARK  233  A    between atoms: _573  and  _574
REMARK  234  A    between atoms: _573  and  _576
REMARK  235  A    between atoms: _576  and  _577
REMARK  236  A    between atoms: _582  and  _583
REMARK                            x       y       z     vdW  Elec       q    Type
REMARK                         _______ _______ _______ _____ _____    ______ ____
ROOT
ATOM      1  O   HOH     1      19.702   9.313  -3.592  0.00  0.00    +0.000 OA
ENDROOT
TORSDOF 0
REMARK  Name = ../refined-set-2016/4h75/4h75_pocket.pdb
REMARK  236 active torsions:
REMARK  status: ('A' for Active; 'I' for Inactive)
REMARK    1  A    between atoms: _1  and  _3
REMARK    2  A    between atoms: _3  and  _4
REMARK    3  A    between atoms: _3  and  _6
REMARK    4  A    between atoms: _6  and  _7
REMARK    5  A    between atoms: _17  and  _19
REMARK    6  A    between atoms: _19  and  _20
REMARK    7  A    between atoms: _19  and  _22
REMARK    8  A    between atoms: _22  and  _23
REMARK    9  A    between atoms: _23  and  _24
REMARK   10  A    between atoms: _24  and  _25
REMARK   11  A    between atoms: _25  and  _26
REMARK   12  A    between atoms: _30  and  _32
REMARK   13  A    between atoms: _32  and  _33
REMARK   14  A    between atoms: _32  and  _35
REMARK   15  A    between atoms: _35  and  _36
REMARK   16  A    between atoms: _41  and  _42
REMARK   17  A    between atoms: _44  and  _46
REMARK   18  A    between atoms: _46  and  _47
REMARK   19  A    between atoms: _46  and  _49
REMARK   20  A    between atoms: _49  and  _50
REMARK   21  A    between atoms: _53  and  _55
REMARK   22  A    between atoms: _55  and  _56
REMARK   23  A    between atoms: _58  and  _60
REMARK   24  A    between atoms: _60  and  _61
REMARK   25  A    between atoms: _60  and  _63
REMARK   26  A    between atoms: _63  and  _64
REMARK   27  A    between atoms: _70  and  _72
REMARK   28  A    between atoms: _72  and  _73
REMARK   29  A    between atoms: _72  and  _75
REMARK   30  A    between atoms: _75  and  _76
REMARK   31  A    between atoms: _79  and  _81
REMARK   32  A    between atoms: _81  and  _82
REMARK   33  A    between atoms: _81  and  _84
REMARK   34  A    between atoms: _86  and  _88
REMARK   35  A    between atoms: _88  and  _89
REMARK   36  A    between atoms: _88  and  _91
REMARK   37  A    between atoms: _94  and  _96
REMARK   38  A    between atoms: _96  and  _97
REMARK   39  A    between atoms: _96  and  _99
REMARK   40  A    between atoms: _99  and  _100
REMARK   41  A    between atoms: _105  and  _106
REMARK   42  A    between atoms: _108  and  _110
REMARK   43  A    between atoms: _110  and  _111
REMARK   44  A    between atoms: _110  and  _113
REMARK   45  A    between atoms: _113  and  _114
REMARK   46  A    between atoms: _119  and  _121
REMARK   47  A    between atoms: _121  and  _122
REMARK   48  A    between atoms: _121  and  _124
REMARK   49  A    between atoms: _124  and  _125
REMARK   50  A    between atoms: _125  and  _126
REMARK   51  A    between atoms: _128  and  _130
REMARK   52  A    between atoms: _130  and  _131
REMARK   53  A    between atoms: _130  and  _133
REMARK   54  A    between atoms: _133  and  _134
REMARK   55  A    between atoms: _140  and  _142
REMARK   56  A    between atoms: _142  and  _143
REMARK   57  A    between atoms: _142  and  _145
REMARK   58  A    between atoms: _145  and  _146
REMARK   59  A    between atoms: _146  and  _147
REMARK   60  A    between atoms: _150  and  _152
REMARK   61  A    between atoms: _152  and  _153
REMARK   62  A    between atoms: _152  and  _155
REMARK   63  A    between atoms: _155  and  _156
REMARK   64  A    between atoms: _159  and  _161
REMARK   65  A    between atoms: _161  and  _162
REMARK   66  A    between atoms: _161  and  _164
REMARK   67  A    between atoms: _164  and  _165
REMARK   68  A    between atoms: _165  and  _166
REMARK   69  A    between atoms: _169  and  _171
REMARK   70  A    between atoms: _171  and  _172
REMARK   71  A    between atoms: _171  and  _174
REMARK   72  A    between atoms: _174  and  _175
REMARK   73  A    between atoms: _178  and  _180
REMARK   74  A    between atoms: _180  and  _181
REMARK   75  A    between atoms: _183  and  _185
REMARK   76  A    between atoms: _185  and  _186
REMARK   77  A    between atoms: _185  and  _188
REMARK   78  A    between atoms: _188  and  _189
REMARK   79  A    between atoms: _191  and  _193
REMARK   80  A    between atoms: _193  and  _194
REMARK   81  A    between atoms: _193  and  _196
REMARK   82  A    between atoms: _196  and  _197
REMARK   83  A    between atoms: _197  and  _198
REMARK   84  A    between atoms: _198  and  _199
REMARK   85  A    between atoms: _199  and  _200
REMARK   86  A    between atoms: _204  and  _206
REMARK   87  A    between atoms: _206  and  _207
REMARK   88  A    between atoms: _206  and  _209
REMARK   89  A    between atoms: _209  and  _210
REMARK   90  A    between atoms: _213  and  _215
REMARK   91  A    between atoms: _215  and  _216
REMARK   92  A    between atoms: _215  and  _218
REMARK   93  A    between atoms: _218  and  _219
REMARK   94  A    between atoms: _219  and  _220
REMARK   95  A    between atoms: _223  and  _225
REMARK   96  A    between atoms: _225  and  _226
REMARK   97  A    between atoms: _225  and  _228
REMARK   98  A    between atoms: _228  and  _229
REMARK   99  A    between atoms: _239  and  _241
REMARK  100  A    between atoms: _241  and  _242
REMARK  101  A    between atoms: _241  and  _244
REMARK  102  A    between atoms: _244  and  _245
REMARK  103  A    between atoms: _245  and  _246
REMARK  104  A    between atoms: _246  and  _247
REMARK  105  A    between atoms: _256  and  _258
REMARK  106  A    between atoms: _258  and  _259
REMARK  107  A    between atoms: _258  and  _261
REMARK  108  A    between atoms: _261  and  _262
REMARK  109  A    between atoms: _265  and  _267
REMARK  110  A    between atoms: _267  and  _268
REMARK  111  A    between atoms: _267  and  _270
REMARK  112  A    between atoms: _270  and  _271
REMARK  113  A    between atoms: _281  and  _283
REMARK  114  A    between atoms: _283  and  _284
REMARK  115  A    between atoms: _283  and  _286
REMARK  116  A    between atoms: _286  and  _287
REMARK  117  A    between atoms: _293  and  _295
REMARK  118  A    between atoms: _295  and  _296
REMARK  119  A    between atoms: _295  and  _298
REMARK  120  A    between atoms: _298  and  _299
REMARK  121  A    between atoms: _302  and  _304
REMARK  122  A    between atoms: _304  and  _305
REMARK  123  A    between atoms: _304  and  _307
REMARK  124  A    between atoms: _307  and  _308
REMARK  125  A    between atoms: _311  and  _313
REMARK  126  A    between atoms: _313  and  _314
REMARK  127  A    between atoms: _313  and  _316
REMARK  128  A    between atoms: _316  and  _317
REMARK  129  A    between atoms: _322  and  _323
REMARK  130  A    between atoms: _325  and  _327
REMARK  131  A    between atoms: _327  and  _328
REMARK  132  A    between atoms: _327  and  _330
REMARK  133  A    between atoms: _330  and  _331
REMARK  134  A    between atoms: _331  and  _332
REMARK  135  A    between atoms: _335  and  _337
REMARK  136  A    between atoms: _337  and  _338
REMARK  137  A    between atoms: _337  and  _340
REMARK  138  A    between atoms: _340  and  _341
REMARK  139  A    between atoms: _341  and  _342
REMARK  140  A    between atoms: _342  and  _343
REMARK  141  A    between atoms: _343  and  _344
REMARK  142  A    between atoms: _348  and  _350
REMARK  143  A    between atoms: _350  and  _351
REMARK  144  A    between atoms: _350  and  _353
REMARK  145  A    between atoms: _353  and  _354
REMARK  146  A    between atoms: _358  and  _359
REMARK  147  A    between atoms: _364  and  _366
REMARK  148  A    between atoms: _366  and  _367
REMARK  149  A    between atoms: _366  and  _369
REMARK  150  A    between atoms: _372  and  _374
REMARK  151  A    between atoms: _374  and  _375
REMARK  152  A    between atoms: _374  and  _377
REMARK  153  A    between atoms: _377  and  _378
REMARK  154  A    between atoms: _381  and  _383
REMARK  155  A    between atoms: _383  and  _384
REMARK  156  A    between atoms: _383  and  _386
REMARK  157  A    between atoms: _386  and  _387
REMARK  158  A    between atoms: _392  and  _393
REMARK  159  A    between atoms: _395  and  _397
REMARK  160  A    between atoms: _397  and  _398
REMARK  161  A    between atoms: _397  and  _400
REMARK  162  A    between atoms: _400  and  _401
REMARK  163  A    between atoms: _401  and  _402
REMARK  164  A    between atoms: _404  and  _406
REMARK  165  A    between atoms: _406  and  _407
REMARK  166  A    between atoms: _406  and  _409
REMARK  167  A    between atoms: _409  and  _410
REMARK  168  A    between atoms: _415  and  _416
REMARK  169  A    between atoms: _418  and  _420
REMARK  170  A    between atoms: _420  and  _421
REMARK  171  A    between atoms: _420  and  _423
REMARK  172  A    between atoms: _423  and  _424
REMARK  173  A    between atoms: _424  and  _425
REMARK  174  A    between atoms: _430  and  _432
REMARK  175  A    between atoms: _432  and  _433
REMARK  176  A    between atoms: _432  and  _435
REMARK  177  A    between atoms: _435  and  _436
REMARK  178  A    between atoms: _439  and  _441
REMARK  179  A    between atoms: _441  and  _442
REMARK  180  A    between atoms: _441  and  _444
REMARK  181  A    between atoms: _444  and  _445
REMARK  182  A    between atoms: _448  and  _450
REMARK  183  A    between atoms: _450  and  _451
REMARK  184  A    between atoms: _450  and  _453
REMARK  185  A    between atoms: _453  and  _454
REMARK  186  A    between atoms: _457  and  _459
REMARK  187  A    between atoms: _459  and  _460
REMARK  188  A    between atoms: _459  and  _462
REMARK  189  A    between atoms: _462  and  _463
REMARK  190  A    between atoms: _466  and  _468
REMARK  191  A    between atoms: _468  and  _469
REMARK  192  A    between atoms: _468  and  _471
REMARK  193  A    between atoms: _471  and  _472
REMARK  194  A    between atoms: _477  and  _478
REMARK  195  A    between atoms: _480  and  _482
REMARK  196  A    between atoms: _482  and  _483
REMARK  197  A    between atoms: _482  and  _485
REMARK  198  A    between atoms: _485  and  _486
REMARK  199  A    between atoms: _486  and  _487
REMARK  200  A    between atoms: _490  and  _492
REMARK  201  A    between atoms: _492  and  _493
REMARK  202  A    between atoms: _495  and  _497
REMARK  203  A    between atoms: _497  and  _498
REMARK  204  A    between atoms: _497  and  _500
REMARK  205  A    between atoms: _500  and  _501
REMARK  206  A    between atoms: _504  and  _506
REMARK  207  A    between atoms: _506  and  _507
REMARK  208  A    between atoms: _506  and  _509
REMARK  209  A    between atoms: _509  and  _510
REMARK  210  A    between atoms: _513  and  _515
REMARK  211  A    between atoms: _515  and  _516
REMARK  212  A    between atoms: _515  and  _518
REMARK  213  A    between atoms: _518  and  _519
REMARK  214  A    between atoms: _519  and  _520
REMARK  215  A    between atoms: _520  and  _521
REMARK  216  A    between atoms: _530  and  _532
REMARK  217  A    between atoms: _532  and  _533
REMARK  218  A    between atoms: _532  and  _535
REMARK  219  A    between atoms: _535  and  _536
REMARK  220  A    between atoms: _539  and  _541
REMARK  221  A    between atoms: _541  and  _542
REMARK  222  A    between atoms: _541  and  _544
REMARK  223  A    between atoms: _544  and  _545
REMARK  224  A    between atoms: _551  and  _553
REMARK  225  A    between atoms: _553  and  _554
REMARK  226  A    between atoms: _553  and  _556
REMARK  227  A    between atoms: _556  and  _557
REMARK  228  A    between atoms: _562  and  _564
REMARK  229  A    between atoms: _564  and  _565
REMARK  230  A    between atoms: _564  and  _567
REMARK  231  A    between atoms: _567  and  _568
REMARK  232  A    between atoms: _571  and  _573
REMARK  233  A    between atoms: _573  and  _574
REMARK  234  A    between atoms: _573  and  _576
REMARK  235  A    between atoms: _576  and  _577
REMARK  236  A    between atoms: _582  and  _583
REMARK                            x       y       z     vdW  Elec       q    Type
REMARK                         _______ _______ _______ _____ _____    ______ ____
ROOT
ATOM      1  O   HOH     1       6.297  -1.709   2.778  0.00  0.00    +0.000 OA
ENDROOT
TORSDOF 0
REMARK  Name = ../refined-set-2016/4h75/4h75_pocket.pdb
REMARK  236 active torsions:
REMARK  status: ('A' for Active; 'I' for Inactive)
REMARK    1  A    between atoms: _1  and  _3
REMARK    2  A    between atoms: _3  and  _4
REMARK    3  A    between atoms: _3  and  _6
REMARK    4  A    between atoms: _6  and  _7
REMARK    5  A    between atoms: _17  and  _19
REMARK    6  A    between atoms: _19  and  _20
REMARK    7  A    between atoms: _19  and  _22
REMARK    8  A    between atoms: _22  and  _23
REMARK    9  A    between atoms: _23  and  _24
REMARK   10  A    between atoms: _24  and  _25
REMARK   11  A    between atoms: _25  and  _26
REMARK   12  A    between atoms: _30  and  _32
REMARK   13  A    between atoms: _32  and  _33
REMARK   14  A    between atoms: _32  and  _35
REMARK   15  A    between atoms: _35  and  _36
REMARK   16  A    between atoms: _41  and  _42
REMARK   17  A    between atoms: _44  and  _46
REMARK   18  A    between atoms: _46  and  _47
REMARK   19  A    between atoms: _46  and  _49
REMARK   20  A    between atoms: _49  and  _50
REMARK   21  A    between atoms: _53  and  _55
REMARK   22  A    between atoms: _55  and  _56
REMARK   23  A    between atoms: _58  and  _60
REMARK   24  A    between atoms: _60  and  _61
REMARK   25  A    between atoms: _60  and  _63
REMARK   26  A    between atoms: _63  and  _64
REMARK   27  A    between atoms: _70  and  _72
REMARK   28  A    between atoms: _72  and  _73
REMARK   29  A    between atoms: _72  and  _75
REMARK   30  A    between atoms: _75  and  _76
REMARK   31  A    between atoms: _79  and  _81
REMARK   32  A    between atoms: _81  and  _82
REMARK   33  A    between atoms: _81  and  _84
REMARK   34  A    between atoms: _86  and  _88
REMARK   35  A    between atoms: _88  and  _89
REMARK   36  A    between atoms: _88  and  _91
REMARK   37  A    between atoms: _94  and  _96
REMARK   38  A    between atoms: _96  and  _97
REMARK   39  A    between atoms: _96  and  _99
REMARK   40  A    between atoms: _99  and  _100
REMARK   41  A    between atoms: _105  and  _106
REMARK   42  A    between atoms: _108  and  _110
REMARK   43  A    between atoms: _110  and  _111
REMARK   44  A    between atoms: _110  and  _113
REMARK   45  A    between atoms: _113  and  _114
REMARK   46  A    between atoms: _119  and  _121
REMARK   47  A    between atoms: _121  and  _122
REMARK   48  A    between atoms: _121  and  _124
REMARK   49  A    between atoms: _124  and  _125
REMARK   50  A    between atoms: _125  and  _126
REMARK   51  A    between atoms: _128  and  _130
REMARK   52  A    between atoms: _130  and  _131
REMARK   53  A    between atoms: _130  and  _133
REMARK   54  A    between atoms: _133  and  _134
REMARK   55  A    between atoms: _140  and  _142
REMARK   56  A    between atoms: _142  and  _143
REMARK   57  A    between atoms: _142  and  _145
REMARK   58  A    between atoms: _145  and  _146
REMARK   59  A    between atoms: _146  and  _147
REMARK   60  A    between atoms: _150  and  _152
REMARK   61  A    between atoms: _152  and  _153
REMARK   62  A    between atoms: _152  and  _155
REMARK   63  A    between atoms: _155  and  _156
REMARK   64  A    between atoms: _159  and  _161
REMARK   65  A    between atoms: _161  and  _162
REMARK   66  A    between atoms: _161  and  _164
REMARK   67  A    between atoms: _164  and  _165
REMARK   68  A    between atoms: _165  and  _166
REMARK   69  A    between atoms: _169  and  _171
REMARK   70  A    between atoms: _171  and  _172
REMARK   71  A    between atoms: _171  and  _174
REMARK   72  A    between atoms: _174  and  _175
REMARK   73  A    between atoms: _178  and  _180
REMARK   74  A    between atoms: _180  and  _181
REMARK   75  A    between atoms: _183  and  _185
REMARK   76  A    between atoms: _185  and  _186
REMARK   77  A    between atoms: _185  and  _188
REMARK   78  A    between atoms: _188  and  _189
REMARK   79  A    between atoms: _191  and  _193
REMARK   80  A    between atoms: _193  and  _194
REMARK   81  A    between atoms: _193  and  _196
REMARK   82  A    between atoms: _196  and  _197
REMARK   83  A    between atoms: _197  and  _198
REMARK   84  A    between atoms: _198  and  _199
REMARK   85  A    between atoms: _199  and  _200
REMARK   86  A    between atoms: _204  and  _206
REMARK   87  A    between atoms: _206  and  _207
REMARK   88  A    between atoms: _206  and  _209
REMARK   89  A    between atoms: _209  and  _210
REMARK   90  A    between atoms: _213  and  _215
REMARK   91  A    between atoms: _215  and  _216
REMARK   92  A    between atoms: _215  and  _218
REMARK   93  A    between atoms: _218  and  _219
REMARK   94  A    between atoms: _219  and  _220
REMARK   95  A    between atoms: _223  and  _225
REMARK   96  A    between atoms: _225  and  _226
REMARK   97  A    between atoms: _225  and  _228
REMARK   98  A    between atoms: _228  and  _229
REMARK   99  A    between atoms: _239  and  _241
REMARK  100  A    between atoms: _241  and  _242
REMARK  101  A    between atoms: _241  and  _244
REMARK  102  A    between atoms: _244  and  _245
REMARK  103  A    between atoms: _245  and  _246
REMARK  104  A    between atoms: _246  and  _247
REMARK  105  A    between atoms: _256  and  _258
REMARK  106  A    between atoms: _258  and  _259
REMARK  107  A    between atoms: _258  and  _261
REMARK  108  A    between atoms: _261  and  _262
REMARK  109  A    between atoms: _265  and  _267
REMARK  110  A    between atoms: _267  and  _268
REMARK  111  A    between atoms: _267  and  _270
REMARK  112  A    between atoms: _270  and  _271
REMARK  113  A    between atoms: _281  and  _283
REMARK  114  A    between atoms: _283  and  _284
REMARK  115  A    between atoms: _283  and  _286
REMARK  116  A    between atoms: _286  and  _287
REMARK  117  A    between atoms: _293  and  _295
REMARK  118  A    between atoms: _295  and  _296
REMARK  119  A    between atoms: _295  and  _298
REMARK  120  A    between atoms: _298  and  _299
REMARK  121  A    between atoms: _302  and  _304
REMARK  122  A    between atoms: _304  and  _305
REMARK  123  A    between atoms: _304  and  _307
REMARK  124  A    between atoms: _307  and  _308
REMARK  125  A    between atoms: _311  and  _313
REMARK  126  A    between atoms: _313  and  _314
REMARK  127  A    between atoms: _313  and  _316
REMARK  128  A    between atoms: _316  and  _317
REMARK  129  A    between atoms: _322  and  _323
REMARK  130  A    between atoms: _325  and  _327
REMARK  131  A    between atoms: _327  and  _328
REMARK  132  A    between atoms: _327  and  _330
REMARK  133  A    between atoms: _330  and  _331
REMARK  134  A    between atoms: _331  and  _332
REMARK  135  A    between atoms: _335  and  _337
REMARK  136  A    between atoms: _337  and  _338
REMARK  137  A    between atoms: _337  and  _340
REMARK  138  A    between atoms: _340  and  _341
REMARK  139  A    between atoms: _341  and  _342
REMARK  140  A    between atoms: _342  and  _343
REMARK  141  A    between atoms: _343  and  _344
REMARK  142  A    between atoms: _348  and  _350
REMARK  143  A    between atoms: _350  and  _351
REMARK  144  A    between atoms: _350  and  _353
REMARK  145  A    between atoms: _353  and  _354
REMARK  146  A    between atoms: _358  and  _359
REMARK  147  A    between atoms: _364  and  _366
REMARK  148  A    between atoms: _366  and  _367
REMARK  149  A    between atoms: _366  and  _369
REMARK  150  A    between atoms: _372  and  _374
REMARK  151  A    between atoms: _374  and  _375
REMARK  152  A    between atoms: _374  and  _377
REMARK  153  A    between atoms: _377  and  _378
REMARK  154  A    between atoms: _381  and  _383
REMARK  155  A    between atoms: _383  and  _384
REMARK  156  A    between atoms: _383  and  _386
REMARK  157  A    between atoms: _386  and  _387
REMARK  158  A    between atoms: _392  and  _393
REMARK  159  A    between atoms: _395  and  _397
REMARK  160  A    between atoms: _397  and  _398
REMARK  161  A    between atoms: _397  and  _400
REMARK  162  A    between atoms: _400  and  _401
REMARK  163  A    between atoms: _401  and  _402
REMARK  164  A    between atoms: _404  and  _406
REMARK  165  A    between atoms: _406  and  _407
REMARK  166  A    between atoms: _406  and  _409
REMARK  167  A    between atoms: _409  and  _410
REMARK  168  A    between atoms: _415  and  _416
REMARK  169  A    between atoms: _418  and  _420
REMARK  170  A    between atoms: _420  and  _421
REMARK  171  A    between atoms: _420  and  _423
REMARK  172  A    between atoms: _423  and  _424
REMARK  173  A    between atoms: _424  and  _425
REMARK  174  A    between atoms: _430  and  _432
REMARK  175  A    between atoms: _432  and  _433
REMARK  176  A    between atoms: _432  and  _435
REMARK  177  A    between atoms: _435  and  _436
REMARK  178  A    between atoms: _439  and  _441
REMARK  179  A    between atoms: _441  and  _442
REMARK  180  A    between atoms: _441  and  _444
REMARK  181  A    between atoms: _444  and  _445
REMARK  182  A    between atoms: _448  and  _450
REMARK  183  A    between atoms: _450  and  _451
REMARK  184  A    between atoms: _450  and  _453
REMARK  185  A    between atoms: _453  and  _454
REMARK  186  A    between atoms: _457  and  _459
REMARK  187  A    between atoms: _459  and  _460
REMARK  188  A    between atoms: _459  and  _462
REMARK  189  A    between atoms: _462  and  _463
REMARK  190  A    between atoms: _466  and  _468
REMARK  191  A    between atoms: _468  and  _469
REMARK  192  A    between atoms: _468  and  _471
REMARK  193  A    between atoms: _471  and  _472
REMARK  194  A    between atoms: _477  and  _478
REMARK  195  A    between atoms: _480  and  _482
REMARK  196  A    between atoms: _482  and  _483
REMARK  197  A    between atoms: _482  and  _485
REMARK  198  A    between atoms: _485  and  _486
REMARK  199  A    between atoms: _486  and  _487
REMARK  200  A    between atoms: _490  and  _492
REMARK  201  A    between atoms: _492  and  _493
REMARK  202  A    between atoms: _495  and  _497
REMARK  203  A    between atoms: _497  and  _498
REMARK  204  A    between atoms: _497  and  _500
REMARK  205  A    between atoms: _500  and  _501
REMARK  206  A    between atoms: _504  and  _506
REMARK  207  A    between atoms: _506  and  _507
REMARK  208  A    between atoms: _506  and  _509
REMARK  209  A    between atoms: _509  and  _510
REMARK  210  A    between atoms: _513  and  _515
REMARK  211  A    between atoms: _515  and  _516
REMARK  212  A    between atoms: _515  and  _518
REMARK  213  A    between atoms: _518  and  _519
REMARK  214  A    between atoms: _519  and  _520
REMARK  215  A    between atoms: _520  and  _521
REMARK  216  A    between atoms: _530  and  _532
REMARK  217  A    between atoms: _532  and  _533
REMARK  218  A    between atoms: _532  and  _535
REMARK  219  A    between atoms: _535  and  _536
REMARK  220  A    between atoms: _539  and  _541
REMARK  221  A    between atoms: _541  and  _542
REMARK  222  A    between atoms: _541  and  _544
REMARK  223  A    between atoms: _544  and  _545
REMARK  224  A    between atoms: _551  and  _553
REMARK  225  A    between atoms: _553  and  _554
REMARK  226  A    between atoms: _553  and  _556
REMARK  227  A    between atoms: _556  and  _557
REMARK  228  A    between atoms: _562  and  _564
REMARK  229  A    between atoms: _564  and  _565
REMARK  230  A    between atoms: _564  and  _567
REMARK  231  A    between atoms: _567  and  _568
REMARK  232  A    between atoms: _571  and  _573
REMARK  233  A    between atoms: _573  and  _574
REMARK  234  A    between atoms: _573  and  _576
REMARK  235  A    between atoms: _576  and  _577
REMARK  236  A    between atoms: _582  and  _583
REMARK                            x       y       z     vdW  Elec       q    Type
REMARK                         _______ _______ _______ _____ _____    ______ ____
ROOT
ATOM      1  O   HOH     1      13.648  20.924  -1.545  0.00  0.00    +0.000 OA
ENDROOT
TORSDOF 0
REMARK  Name = ../refined-set-2016/4h75/4h75_pocket.pdb
REMARK  236 active torsions:
REMARK  status: ('A' for Active; 'I' for Inactive)
REMARK    1  A    between atoms: _1  and  _3
REMARK    2  A    between atoms: _3  and  _4
REMARK    3  A    between atoms: _3  and  _6
REMARK    4  A    between atoms: _6  and  _7
REMARK    5  A    between atoms: _17  and  _19
REMARK    6  A    between atoms: _19  and  _20
REMARK    7  A    between atoms: _19  and  _22
REMARK    8  A    between atoms: _22  and  _23
REMARK    9  A    between atoms: _23  and  _24
REMARK   10  A    between atoms: _24  and  _25
REMARK   11  A    between atoms: _25  and  _26
REMARK   12  A    between atoms: _30  and  _32
REMARK   13  A    between atoms: _32  and  _33
REMARK   14  A    between atoms: _32  and  _35
REMARK   15  A    between atoms: _35  and  _36
REMARK   16  A    between atoms: _41  and  _42
REMARK   17  A    between atoms: _44  and  _46
REMARK   18  A    between atoms: _46  and  _47
REMARK   19  A    between atoms: _46  and  _49
REMARK   20  A    between atoms: _49  and  _50
REMARK   21  A    between atoms: _53  and  _55
REMARK   22  A    between atoms: _55  and  _56
REMARK   23  A    between atoms: _58  and  _60
REMARK   24  A    between atoms: _60  and  _61
REMARK   25  A    between atoms: _60  and  _63
REMARK   26  A    between atoms: _63  and  _64
REMARK   27  A    between atoms: _70  and  _72
REMARK   28  A    between atoms: _72  and  _73
REMARK   29  A    between atoms: _72  and  _75
REMARK   30  A    between atoms: _75  and  _76
REMARK   31  A    between atoms: _79  and  _81
REMARK   32  A    between atoms: _81  and  _82
REMARK   33  A    between atoms: _81  and  _84
REMARK   34  A    between atoms: _86  and  _88
REMARK   35  A    between atoms: _88  and  _89
REMARK   36  A    between atoms: _88  and  _91
REMARK   37  A    between atoms: _94  and  _96
REMARK   38  A    between atoms: _96  and  _97
REMARK   39  A    between atoms: _96  and  _99
REMARK   40  A    between atoms: _99  and  _100
REMARK   41  A    between atoms: _105  and  _106
REMARK   42  A    between atoms: _108  and  _110
REMARK   43  A    between atoms: _110  and  _111
REMARK   44  A    between atoms: _110  and  _113
REMARK   45  A    between atoms: _113  and  _114
REMARK   46  A    between atoms: _119  and  _121
REMARK   47  A    between atoms: _121  and  _122
REMARK   48  A    between atoms: _121  and  _124
REMARK   49  A    between atoms: _124  and  _125
REMARK   50  A    between atoms: _125  and  _126
REMARK   51  A    between atoms: _128  and  _130
REMARK   52  A    between atoms: _130  and  _131
REMARK   53  A    between atoms: _130  and  _133
REMARK   54  A    between atoms: _133  and  _134
REMARK   55  A    between atoms: _140  and  _142
REMARK   56  A    between atoms: _142  and  _143
REMARK   57  A    between atoms: _142  and  _145
REMARK   58  A    between atoms: _145  and  _146
REMARK   59  A    between atoms: _146  and  _147
REMARK   60  A    between atoms: _150  and  _152
REMARK   61  A    between atoms: _152  and  _153
REMARK   62  A    between atoms: _152  and  _155
REMARK   63  A    between atoms: _155  and  _156
REMARK   64  A    between atoms: _159  and  _161
REMARK   65  A    between atoms: _161  and  _162
REMARK   66  A    between atoms: _161  and  _164
REMARK   67  A    between atoms: _164  and  _165
REMARK   68  A    between atoms: _165  and  _166
REMARK   69  A    between atoms: _169  and  _171
REMARK   70  A    between atoms: _171  and  _172
REMARK   71  A    between atoms: _171  and  _174
REMARK   72  A    between atoms: _174  and  _175
REMARK   73  A    between atoms: _178  and  _180
REMARK   74  A    between atoms: _180  and  _181
REMARK   75  A    between atoms: _183  and  _185
REMARK   76  A    between atoms: _185  and  _186
REMARK   77  A    between atoms: _185  and  _188
REMARK   78  A    between atoms: _188  and  _189
REMARK   79  A    between atoms: _191  and  _193
REMARK   80  A    between atoms: _193  and  _194
REMARK   81  A    between atoms: _193  and  _196
REMARK   82  A    between atoms: _196  and  _197
REMARK   83  A    between atoms: _197  and  _198
REMARK   84  A    between atoms: _198  and  _199
REMARK   85  A    between atoms: _199  and  _200
REMARK   86  A    between atoms: _204  and  _206
REMARK   87  A    between atoms: _206  and  _207
REMARK   88  A    between atoms: _206  and  _209
REMARK   89  A    between atoms: _209  and  _210
REMARK   90  A    between atoms: _213  and  _215
REMARK   91  A    between atoms: _215  and  _216
REMARK   92  A    between atoms: _215  and  _218
REMARK   93  A    between atoms: _218  and  _219
REMARK   94  A    between atoms: _219  and  _220
REMARK   95  A    between atoms: _223  and  _225
REMARK   96  A    between atoms: _225  and  _226
REMARK   97  A    between atoms: _225  and  _228
REMARK   98  A    between atoms: _228  and  _229
REMARK   99  A    between atoms: _239  and  _241
REMARK  100  A    between atoms: _241  and  _242
REMARK  101  A    between atoms: _241  and  _244
REMARK  102  A    between atoms: _244  and  _245
REMARK  103  A    between atoms: _245  and  _246
REMARK  104  A    between atoms: _246  and  _247
REMARK  105  A    between atoms: _256  and  _258
REMARK  106  A    between atoms: _258  and  _259
REMARK  107  A    between atoms: _258  and  _261
REMARK  108  A    between atoms: _261  and  _262
REMARK  109  A    between atoms: _265  and  _267
REMARK  110  A    between atoms: _267  and  _268
REMARK  111  A    between atoms: _267  and  _270
REMARK  112  A    between atoms: _270  and  _271
REMARK  113  A    between atoms: _281  and  _283
REMARK  114  A    between atoms: _283  and  _284
REMARK  115  A    between atoms: _283  and  _286
REMARK  116  A    between atoms: _286  and  _287
REMARK  117  A    between atoms: _293  and  _295
REMARK  118  A    between atoms: _295  and  _296
REMARK  119  A    between atoms: _295  and  _298
REMARK  120  A    between atoms: _298  and  _299
REMARK  121  A    between atoms: _302  and  _304
REMARK  122  A    between atoms: _304  and  _305
REMARK  123  A    between atoms: _304  and  _307
REMARK  124  A    between atoms: _307  and  _308
REMARK  125  A    between atoms: _311  and  _313
REMARK  126  A    between atoms: _313  and  _314
REMARK  127  A    between atoms: _313  and  _316
REMARK  128  A    between atoms: _316  and  _317
REMARK  129  A    between atoms: _322  and  _323
REMARK  130  A    between atoms: _325  and  _327
REMARK  131  A    between atoms: _327  and  _328
REMARK  132  A    between atoms: _327  and  _330
REMARK  133  A    between atoms: _330  and  _331
REMARK  134  A    between atoms: _331  and  _332
REMARK  135  A    between atoms: _335  and  _337
REMARK  136  A    between atoms: _337  and  _338
REMARK  137  A    between atoms: _337  and  _340
REMARK  138  A    between atoms: _340  and  _341
REMARK  139  A    between atoms: _341  and  _342
REMARK  140  A    between atoms: _342  and  _343
REMARK  141  A    between atoms: _343  and  _344
REMARK  142  A    between atoms: _348  and  _350
REMARK  143  A    between atoms: _350  and  _351
REMARK  144  A    between atoms: _350  and  _353
REMARK  145  A    between atoms: _353  and  _354
REMARK  146  A    between atoms: _358  and  _359
REMARK  147  A    between atoms: _364  and  _366
REMARK  148  A    between atoms: _366  and  _367
REMARK  149  A    between atoms: _366  and  _369
REMARK  150  A    between atoms: _372  and  _374
REMARK  151  A    between atoms: _374  and  _375
REMARK  152  A    between atoms: _374  and  _377
REMARK  153  A    between atoms: _377  and  _378
REMARK  154  A    between atoms: _381  and  _383
REMARK  155  A    between atoms: _383  and  _384
REMARK  156  A    between atoms: _383  and  _386
REMARK  157  A    between atoms: _386  and  _387
REMARK  158  A    between atoms: _392  and  _393
REMARK  159  A    between atoms: _395  and  _397
REMARK  160  A    between atoms: _397  and  _398
REMARK  161  A    between atoms: _397  and  _400
REMARK  162  A    between atoms: _400  and  _401
REMARK  163  A    between atoms: _401  and  _402
REMARK  164  A    between atoms: _404  and  _406
REMARK  165  A    between atoms: _406  and  _407
REMARK  166  A    between atoms: _406  and  _409
REMARK  167  A    between atoms: _409  and  _410
REMARK  168  A    between atoms: _415  and  _416
REMARK  169  A    between atoms: _418  and  _420
REMARK  170  A    between atoms: _420  and  _421
REMARK  171  A    between atoms: _420  and  _423
REMARK  172  A    between atoms: _423  and  _424
REMARK  173  A    between atoms: _424  and  _425
REMARK  174  A    between atoms: _430  and  _432
REMARK  175  A    between atoms: _432  and  _433
REMARK  176  A    between atoms: _432  and  _435
REMARK  177  A    between atoms: _435  and  _436
REMARK  178  A    between atoms: _439  and  _441
REMARK  179  A    between atoms: _441  and  _442
REMARK  180  A    between atoms: _441  and  _444
REMARK  181  A    between atoms: _444  and  _445
REMARK  182  A    between atoms: _448  and  _450
REMARK  183  A    between atoms: _450  and  _451
REMARK  184  A    between atoms: _450  and  _453
REMARK  185  A    between atoms: _453  and  _454
REMARK  186  A    between atoms: _457  and  _459
REMARK  187  A    between atoms: _459  and  _460
REMARK  188  A    between atoms: _459  and  _462
REMARK  189  A    between atoms: _462  and  _463
REMARK  190  A    between atoms: _466  and  _468
REMARK  191  A    between atoms: _468  and  _469
REMARK  192  A    between atoms: _468  and  _471
REMARK  193  A    between atoms: _471  and  _472
REMARK  194  A    between atoms: _477  and  _478
REMARK  195  A    between atoms: _480  and  _482
REMARK  196  A    between atoms: _482  and  _483
REMARK  197  A    between atoms: _482  and  _485
REMARK  198  A    between atoms: _485  and  _486
REMARK  199  A    between atoms: _486  and  _487
REMARK  200  A    between atoms: _490  and  _492
REMARK  201  A    between atoms: _492  and  _493
REMARK  202  A    between atoms: _495  and  _497
REMARK  203  A    between atoms: _497  and  _498
REMARK  204  A    between atoms: _497  and  _500
REMARK  205  A    between atoms: _500  and  _501
REMARK  206  A    between atoms: _504  and  _506
REMARK  207  A    between atoms: _506  and  _507
REMARK  208  A    between atoms: _506  and  _509
REMARK  209  A    between atoms: _509  and  _510
REMARK  210  A    between atoms: _513  and  _515
REMARK  211  A    between atoms: _515  and  _516
REMARK  212  A    between atoms: _515  and  _518
REMARK  213  A    between atoms: _518  and  _519
REMARK  214  A    between atoms: _519  and  _520
REMARK  215  A    between atoms: _520  and  _521
REMARK  216  A    between atoms: _530  and  _532
REMARK  217  A    between atoms: _532  and  _533
REMARK  218  A    between atoms: _532  and  _535
REMARK  219  A    between atoms: _535  and  _536
REMARK  220  A    between atoms: _539  and  _541
REMARK  221  A    between atoms: _541  and  _542
REMARK  222  A    between atoms: _541  and  _544
REMARK  223  A    between atoms: _544  and  _545
REMARK  224  A    between atoms: _551  and  _553
REMARK  225  A    between atoms: _553  and  _554
REMARK  226  A    between atoms: _553  and  _556
REMARK  227  A    between atoms: _556  and  _557
REMARK  228  A    between atoms: _562  and  _564
REMARK  229  A    between atoms: _564  and  _565
REMARK  230  A    between atoms: _564  and  _567
REMARK  231  A    between atoms: _567  and  _568
REMARK  232  A    between atoms: _571  and  _573
REMARK  233  A    between atoms: _573  and  _574
REMARK  234  A    between atoms: _573  and  _576
REMARK  235  A    between atoms: _576  and  _577
REMARK  236  A    between atoms: _582  and  _583
REMARK                            x       y       z     vdW  Elec       q    Type
REMARK                         _______ _______ _______ _____ _____    ______ ____
ROOT
ATOM      1  O   HOH     1       9.763  18.215  -4.877  0.00  0.00    +0.000 OA
ENDROOT
TORSDOF 0
REMARK  Name = ../refined-set-2016/4h75/4h75_pocket.pdb
REMARK  236 active torsions:
REMARK  status: ('A' for Active; 'I' for Inactive)
REMARK    1  A    between atoms: _1  and  _3
REMARK    2  A    between atoms: _3  and  _4
REMARK    3  A    between atoms: _3  and  _6
REMARK    4  A    between atoms: _6  and  _7
REMARK    5  A    between atoms: _17  and  _19
REMARK    6  A    between atoms: _19  and  _20
REMARK    7  A    between atoms: _19  and  _22
REMARK    8  A    between atoms: _22  and  _23
REMARK    9  A    between atoms: _23  and  _24
REMARK   10  A    between atoms: _24  and  _25
REMARK   11  A    between atoms: _25  and  _26
REMARK   12  A    between atoms: _30  and  _32
REMARK   13  A    between atoms: _32  and  _33
REMARK   14  A    between atoms: _32  and  _35
REMARK   15  A    between atoms: _35  and  _36
REMARK   16  A    between atoms: _41  and  _42
REMARK   17  A    between atoms: _44  and  _46
REMARK   18  A    between atoms: _46  and  _47
REMARK   19  A    between atoms: _46  and  _49
REMARK   20  A    between atoms: _49  and  _50
REMARK   21  A    between atoms: _53  and  _55
REMARK   22  A    between atoms: _55  and  _56
REMARK   23  A    between atoms: _58  and  _60
REMARK   24  A    between atoms: _60  and  _61
REMARK   25  A    between atoms: _60  and  _63
REMARK   26  A    between atoms: _63  and  _64
REMARK   27  A    between atoms: _70  and  _72
REMARK   28  A    between atoms: _72  and  _73
REMARK   29  A    between atoms: _72  and  _75
REMARK   30  A    between atoms: _75  and  _76
REMARK   31  A    between atoms: _79  and  _81
REMARK   32  A    between atoms: _81  and  _82
REMARK   33  A    between atoms: _81  and  _84
REMARK   34  A    between atoms: _86  and  _88
REMARK   35  A    between atoms: _88  and  _89
REMARK   36  A    between atoms: _88  and  _91
REMARK   37  A    between atoms: _94  and  _96
REMARK   38  A    between atoms: _96  and  _97
REMARK   39  A    between atoms: _96  and  _99
REMARK   40  A    between atoms: _99  and  _100
REMARK   41  A    between atoms: _105  and  _106
REMARK   42  A    between atoms: _108  and  _110
REMARK   43  A    between atoms: _110  and  _111
REMARK   44  A    between atoms: _110  and  _113
REMARK   45  A    between atoms: _113  and  _114
REMARK   46  A    between atoms: _119  and  _121
REMARK   47  A    between atoms: _121  and  _122
REMARK   48  A    between atoms: _121  and  _124
REMARK   49  A    between atoms: _124  and  _125
REMARK   50  A    between atoms: _125  and  _126
REMARK   51  A    between atoms: _128  and  _130
REMARK   52  A    between atoms: _130  and  _131
REMARK   53  A    between atoms: _130  and  _133
REMARK   54  A    between atoms: _133  and  _134
REMARK   55  A    between atoms: _140  and  _142
REMARK   56  A    between atoms: _142  and  _143
REMARK   57  A    between atoms: _142  and  _145
REMARK   58  A    between atoms: _145  and  _146
REMARK   59  A    between atoms: _146  and  _147
REMARK   60  A    between atoms: _150  and  _152
REMARK   61  A    between atoms: _152  and  _153
REMARK   62  A    between atoms: _152  and  _155
REMARK   63  A    between atoms: _155  and  _156
REMARK   64  A    between atoms: _159  and  _161
REMARK   65  A    between atoms: _161  and  _162
REMARK   66  A    between atoms: _161  and  _164
REMARK   67  A    between atoms: _164  and  _165
REMARK   68  A    between atoms: _165  and  _166
REMARK   69  A    between atoms: _169  and  _171
REMARK   70  A    between atoms: _171  and  _172
REMARK   71  A    between atoms: _171  and  _174
REMARK   72  A    between atoms: _174  and  _175
REMARK   73  A    between atoms: _178  and  _180
REMARK   74  A    between atoms: _180  and  _181
REMARK   75  A    between atoms: _183  and  _185
REMARK   76  A    between atoms: _185  and  _186
REMARK   77  A    between atoms: _185  and  _188
REMARK   78  A    between atoms: _188  and  _189
REMARK   79  A    between atoms: _191  and  _193
REMARK   80  A    between atoms: _193  and  _194
REMARK   81  A    between atoms: _193  and  _196
REMARK   82  A    between atoms: _196  and  _197
REMARK   83  A    between atoms: _197  and  _198
REMARK   84  A    between atoms: _198  and  _199
REMARK   85  A    between atoms: _199  and  _200
REMARK   86  A    between atoms: _204  and  _206
REMARK   87  A    between atoms: _206  and  _207
REMARK   88  A    between atoms: _206  and  _209
REMARK   89  A    between atoms: _209  and  _210
REMARK   90  A    between atoms: _213  and  _215
REMARK   91  A    between atoms: _215  and  _216
REMARK   92  A    between atoms: _215  and  _218
REMARK   93  A    between atoms: _218  and  _219
REMARK   94  A    between atoms: _219  and  _220
REMARK   95  A    between atoms: _223  and  _225
REMARK   96  A    between atoms: _225  and  _226
REMARK   97  A    between atoms: _225  and  _228
REMARK   98  A    between atoms: _228  and  _229
REMARK   99  A    between atoms: _239  and  _241
REMARK  100  A    between atoms: _241  and  _242
REMARK  101  A    between atoms: _241  and  _244
REMARK  102  A    between atoms: _244  and  _245
REMARK  103  A    between atoms: _245  and  _246
REMARK  104  A    between atoms: _246  and  _247
REMARK  105  A    between atoms: _256  and  _258
REMARK  106  A    between atoms: _258  and  _259
REMARK  107  A    between atoms: _258  and  _261
REMARK  108  A    between atoms: _261  and  _262
REMARK  109  A    between atoms: _265  and  _267
REMARK  110  A    between atoms: _267  and  _268
REMARK  111  A    between atoms: _267  and  _270
REMARK  112  A    between atoms: _270  and  _271
REMARK  113  A    between atoms: _281  and  _283
REMARK  114  A    between atoms: _283  and  _284
REMARK  115  A    between atoms: _283  and  _286
REMARK  116  A    between atoms: _286  and  _287
REMARK  117  A    between atoms: _293  and  _295
REMARK  118  A    between atoms: _295  and  _296
REMARK  119  A    between atoms: _295  and  _298
REMARK  120  A    between atoms: _298  and  _299
REMARK  121  A    between atoms: _302  and  _304
REMARK  122  A    between atoms: _304  and  _305
REMARK  123  A    between atoms: _304  and  _307
REMARK  124  A    between atoms: _307  and  _308
REMARK  125  A    between atoms: _311  and  _313
REMARK  126  A    between atoms: _313  and  _314
REMARK  127  A    between atoms: _313  and  _316
REMARK  128  A    between atoms: _316  and  _317
REMARK  129  A    between atoms: _322  and  _323
REMARK  130  A    between atoms: _325  and  _327
REMARK  131  A    between atoms: _327  and  _328
REMARK  132  A    between atoms: _327  and  _330
REMARK  133  A    between atoms: _330  and  _331
REMARK  134  A    between atoms: _331  and  _332
REMARK  135  A    between atoms: _335  and  _337
REMARK  136  A    between atoms: _337  and  _338
REMARK  137  A    between atoms: _337  and  _340
REMARK  138  A    between atoms: _340  and  _341
REMARK  139  A    between atoms: _341  and  _342
REMARK  140  A    between atoms: _342  and  _343
REMARK  141  A    between atoms: _343  and  _344
REMARK  142  A    between atoms: _348  and  _350
REMARK  143  A    between atoms: _350  and  _351
REMARK  144  A    between atoms: _350  and  _353
REMARK  145  A    between atoms: _353  and  _354
REMARK  146  A    between atoms: _358  and  _359
REMARK  147  A    between atoms: _364  and  _366
REMARK  148  A    between atoms: _366  and  _367
REMARK  149  A    between atoms: _366  and  _369
REMARK  150  A    between atoms: _372  and  _374
REMARK  151  A    between atoms: _374  and  _375
REMARK  152  A    between atoms: _374  and  _377
REMARK  153  A    between atoms: _377  and  _378
REMARK  154  A    between atoms: _381  and  _383
REMARK  155  A    between atoms: _383  and  _384
REMARK  156  A    between atoms: _383  and  _386
REMARK  157  A    between atoms: _386  and  _387
REMARK  158  A    between atoms: _392  and  _393
REMARK  159  A    between atoms: _395  and  _397
REMARK  160  A    between atoms: _397  and  _398
REMARK  161  A    between atoms: _397  and  _400
REMARK  162  A    between atoms: _400  and  _401
REMARK  163  A    between atoms: _401  and  _402
REMARK  164  A    between atoms: _404  and  _406
REMARK  165  A    between atoms: _406  and  _407
REMARK  166  A    between atoms: _406  and  _409
REMARK  167  A    between atoms: _409  and  _410
REMARK  168  A    between atoms: _415  and  _416
REMARK  169  A    between atoms: _418  and  _420
REMARK  170  A    between atoms: _420  and  _421
REMARK  171  A    between atoms: _420  and  _423
REMARK  172  A    between atoms: _423  and  _424
REMARK  173  A    between atoms: _424  and  _425
REMARK  174  A    between atoms: _430  and  _432
REMARK  175  A    between atoms: _432  and  _433
REMARK  176  A    between atoms: _432  and  _435
REMARK  177  A    between atoms: _435  and  _436
REMARK  178  A    between atoms: _439  and  _441
REMARK  179  A    between atoms: _441  and  _442
REMARK  180  A    between atoms: _441  and  _444
REMARK  181  A    between atoms: _444  and  _445
REMARK  182  A    between atoms: _448  and  _450
REMARK  183  A    between atoms: _450  and  _451
REMARK  184  A    between atoms: _450  and  _453
REMARK  185  A    between atoms: _453  and  _454
REMARK  186  A    between atoms: _457  and  _459
REMARK  187  A    between atoms: _459  and  _460
REMARK  188  A    between atoms: _459  and  _462
REMARK  189  A    between atoms: _462  and  _463
REMARK  190  A    between atoms: _466  and  _468
REMARK  191  A    between atoms: _468  and  _469
REMARK  192  A    between atoms: _468  and  _471
REMARK  193  A    between atoms: _471  and  _472
REMARK  194  A    between atoms: _477  and  _478
REMARK  195  A    between atoms: _480  and  _482
REMARK  196  A    between atoms: _482  and  _483
REMARK  197  A    between atoms: _482  and  _485
REMARK  198  A    between atoms: _485  and  _486
REMARK  199  A    between atoms: _486  and  _487
REMARK  200  A    between atoms: _490  and  _492
REMARK  201  A    between atoms: _492  and  _493
REMARK  202  A    between atoms: _495  and  _497
REMARK  203  A    between atoms: _497  and  _498
REMARK  204  A    between atoms: _497  and  _500
REMARK  205  A    between atoms: _500  and  _501
REMARK  206  A    between atoms: _504  and  _506
REMARK  207  A    between atoms: _506  and  _507
REMARK  208  A    between atoms: _506  and  _509
REMARK  209  A    between atoms: _509  and  _510
REMARK  210  A    between atoms: _513  and  _515
REMARK  211  A    between atoms: _515  and  _516
REMARK  212  A    between atoms: _515  and  _518
REMARK  213  A    between atoms: _518  and  _519
REMARK  214  A    between atoms: _519  and  _520
REMARK  215  A    between atoms: _520  and  _521
REMARK  216  A    between atoms: _530  and  _532
REMARK  217  A    between atoms: _532  and  _533
REMARK  218  A    between atoms: _532  and  _535
REMARK  219  A    between atoms: _535  and  _536
REMARK  220  A    between atoms: _539  and  _541
REMARK  221  A    between atoms: _541  and  _542
REMARK  222  A    between atoms: _541  and  _544
REMARK  223  A    between atoms: _544  and  _545
REMARK  224  A    between atoms: _551  and  _553
REMARK  225  A    between atoms: _553  and  _554
REMARK  226  A    between atoms: _553  and  _556
REMARK  227  A    between atoms: _556  and  _557
REMARK  228  A    between atoms: _562  and  _564
REMARK  229  A    between atoms: _564  and  _565
REMARK  230  A    between atoms: _564  and  _567
REMARK  231  A    between atoms: _567  and  _568
REMARK  232  A    between atoms: _571  and  _573
REMARK  233  A    between atoms: _573  and  _574
REMARK  234  A    between atoms: _573  and  _576
REMARK  235  A    between atoms: _576  and  _577
REMARK  236  A    between atoms: _582  and  _583
REMARK                            x       y       z     vdW  Elec       q    Type
REMARK                         _______ _______ _______ _____ _____    ______ ____
ROOT
ATOM      1  O   HOH     1      16.256  16.477  -0.993  0.00  0.00    +0.000 OA
ENDROOT
TORSDOF 0
REMARK  Name = ../refined-set-2016/4h75/4h75_pocket.pdb
REMARK  236 active torsions:
REMARK  status: ('A' for Active; 'I' for Inactive)
REMARK    1  A    between atoms: _1  and  _3
REMARK    2  A    between atoms: _3  and  _4
REMARK    3  A    between atoms: _3  and  _6
REMARK    4  A    between atoms: _6  and  _7
REMARK    5  A    between atoms: _17  and  _19
REMARK    6  A    between atoms: _19  and  _20
REMARK    7  A    between atoms: _19  and  _22
REMARK    8  A    between atoms: _22  and  _23
REMARK    9  A    between atoms: _23  and  _24
REMARK   10  A    between atoms: _24  and  _25
REMARK   11  A    between atoms: _25  and  _26
REMARK   12  A    between atoms: _30  and  _32
REMARK   13  A    between atoms: _32  and  _33
REMARK   14  A    between atoms: _32  and  _35
REMARK   15  A    between atoms: _35  and  _36
REMARK   16  A    between atoms: _41  and  _42
REMARK   17  A    between atoms: _44  and  _46
REMARK   18  A    between atoms: _46  and  _47
REMARK   19  A    between atoms: _46  and  _49
REMARK   20  A    between atoms: _49  and  _50
REMARK   21  A    between atoms: _53  and  _55
REMARK   22  A    between atoms: _55  and  _56
REMARK   23  A    between atoms: _58  and  _60
REMARK   24  A    between atoms: _60  and  _61
REMARK   25  A    between atoms: _60  and  _63
REMARK   26  A    between atoms: _63  and  _64
REMARK   27  A    between atoms: _70  and  _72
REMARK   28  A    between atoms: _72  and  _73
REMARK   29  A    between atoms: _72  and  _75
REMARK   30  A    between atoms: _75  and  _76
REMARK   31  A    between atoms: _79  and  _81
REMARK   32  A    between atoms: _81  and  _82
REMARK   33  A    between atoms: _81  and  _84
REMARK   34  A    between atoms: _86  and  _88
REMARK   35  A    between atoms: _88  and  _89
REMARK   36  A    between atoms: _88  and  _91
REMARK   37  A    between atoms: _94  and  _96
REMARK   38  A    between atoms: _96  and  _97
REMARK   39  A    between atoms: _96  and  _99
REMARK   40  A    between atoms: _99  and  _100
REMARK   41  A    between atoms: _105  and  _106
REMARK   42  A    between atoms: _108  and  _110
REMARK   43  A    between atoms: _110  and  _111
REMARK   44  A    between atoms: _110  and  _113
REMARK   45  A    between atoms: _113  and  _114
REMARK   46  A    between atoms: _119  and  _121
REMARK   47  A    between atoms: _121  and  _122
REMARK   48  A    between atoms: _121  and  _124
REMARK   49  A    between atoms: _124  and  _125
REMARK   50  A    between atoms: _125  and  _126
REMARK   51  A    between atoms: _128  and  _130
REMARK   52  A    between atoms: _130  and  _131
REMARK   53  A    between atoms: _130  and  _133
REMARK   54  A    between atoms: _133  and  _134
REMARK   55  A    between atoms: _140  and  _142
REMARK   56  A    between atoms: _142  and  _143
REMARK   57  A    between atoms: _142  and  _145
REMARK   58  A    between atoms: _145  and  _146
REMARK   59  A    between atoms: _146  and  _147
REMARK   60  A    between atoms: _150  and  _152
REMARK   61  A    between atoms: _152  and  _153
REMARK   62  A    between atoms: _152  and  _155
REMARK   63  A    between atoms: _155  and  _156
REMARK   64  A    between atoms: _159  and  _161
REMARK   65  A    between atoms: _161  and  _162
REMARK   66  A    between atoms: _161  and  _164
REMARK   67  A    between atoms: _164  and  _165
REMARK   68  A    between atoms: _165  and  _166
REMARK   69  A    between atoms: _169  and  _171
REMARK   70  A    between atoms: _171  and  _172
REMARK   71  A    between atoms: _171  and  _174
REMARK   72  A    between atoms: _174  and  _175
REMARK   73  A    between atoms: _178  and  _180
REMARK   74  A    between atoms: _180  and  _181
REMARK   75  A    between atoms: _183  and  _185
REMARK   76  A    between atoms: _185  and  _186
REMARK   77  A    between atoms: _185  and  _188
REMARK   78  A    between atoms: _188  and  _189
REMARK   79  A    between atoms: _191  and  _193
REMARK   80  A    between atoms: _193  and  _194
REMARK   81  A    between atoms: _193  and  _196
REMARK   82  A    between atoms: _196  and  _197
REMARK   83  A    between atoms: _197  and  _198
REMARK   84  A    between atoms: _198  and  _199
REMARK   85  A    between atoms: _199  and  _200
REMARK   86  A    between atoms: _204  and  _206
REMARK   87  A    between atoms: _206  and  _207
REMARK   88  A    between atoms: _206  and  _209
REMARK   89  A    between atoms: _209  and  _210
REMARK   90  A    between atoms: _213  and  _215
REMARK   91  A    between atoms: _215  and  _216
REMARK   92  A    between atoms: _215  and  _218
REMARK   93  A    between atoms: _218  and  _219
REMARK   94  A    between atoms: _219  and  _220
REMARK   95  A    between atoms: _223  and  _225
REMARK   96  A    between atoms: _225  and  _226
REMARK   97  A    between atoms: _225  and  _228
REMARK   98  A    between atoms: _228  and  _229
REMARK   99  A    between atoms: _239  and  _241
REMARK  100  A    between atoms: _241  and  _242
REMARK  101  A    between atoms: _241  and  _244
REMARK  102  A    between atoms: _244  and  _245
REMARK  103  A    between atoms: _245  and  _246
REMARK  104  A    between atoms: _246  and  _247
REMARK  105  A    between atoms: _256  and  _258
REMARK  106  A    between atoms: _258  and  _259
REMARK  107  A    between atoms: _258  and  _261
REMARK  108  A    between atoms: _261  and  _262
REMARK  109  A    between atoms: _265  and  _267
REMARK  110  A    between atoms: _267  and  _268
REMARK  111  A    between atoms: _267  and  _270
REMARK  112  A    between atoms: _270  and  _271
REMARK  113  A    between atoms: _281  and  _283
REMARK  114  A    between atoms: _283  and  _284
REMARK  115  A    between atoms: _283  and  _286
REMARK  116  A    between atoms: _286  and  _287
REMARK  117  A    between atoms: _293  and  _295
REMARK  118  A    between atoms: _295  and  _296
REMARK  119  A    between atoms: _295  and  _298
REMARK  120  A    between atoms: _298  and  _299
REMARK  121  A    between atoms: _302  and  _304
REMARK  122  A    between atoms: _304  and  _305
REMARK  123  A    between atoms: _304  and  _307
REMARK  124  A    between atoms: _307  and  _308
REMARK  125  A    between atoms: _311  and  _313
REMARK  126  A    between atoms: _313  and  _314
REMARK  127  A    between atoms: _313  and  _316
REMARK  128  A    between atoms: _316  and  _317
REMARK  129  A    between atoms: _322  and  _323
REMARK  130  A    between atoms: _325  and  _327
REMARK  131  A    between atoms: _327  and  _328
REMARK  132  A    between atoms: _327  and  _330
REMARK  133  A    between atoms: _330  and  _331
REMARK  134  A    between atoms: _331  and  _332
REMARK  135  A    between atoms: _335  and  _337
REMARK  136  A    between atoms: _337  and  _338
REMARK  137  A    between atoms: _337  and  _340
REMARK  138  A    between atoms: _340  and  _341
REMARK  139  A    between atoms: _341  and  _342
REMARK  140  A    between atoms: _342  and  _343
REMARK  141  A    between atoms: _343  and  _344
REMARK  142  A    between atoms: _348  and  _350
REMARK  143  A    between atoms: _350  and  _351
REMARK  144  A    between atoms: _350  and  _353
REMARK  145  A    between atoms: _353  and  _354
REMARK  146  A    between atoms: _358  and  _359
REMARK  147  A    between atoms: _364  and  _366
REMARK  148  A    between atoms: _366  and  _367
REMARK  149  A    between atoms: _366  and  _369
REMARK  150  A    between atoms: _372  and  _374
REMARK  151  A    between atoms: _374  and  _375
REMARK  152  A    between atoms: _374  and  _377
REMARK  153  A    between atoms: _377  and  _378
REMARK  154  A    between atoms: _381  and  _383
REMARK  155  A    between atoms: _383  and  _384
REMARK  156  A    between atoms: _383  and  _386
REMARK  157  A    between atoms: _386  and  _387
REMARK  158  A    between atoms: _392  and  _393
REMARK  159  A    between atoms: _395  and  _397
REMARK  160  A    between atoms: _397  and  _398
REMARK  161  A    between atoms: _397  and  _400
REMARK  162  A    between atoms: _400  and  _401
REMARK  163  A    between atoms: _401  and  _402
REMARK  164  A    between atoms: _404  and  _406
REMARK  165  A    between atoms: _406  and  _407
REMARK  166  A    between atoms: _406  and  _409
REMARK  167  A    between atoms: _409  and  _410
REMARK  168  A    between atoms: _415  and  _416
REMARK  169  A    between atoms: _418  and  _420
REMARK  170  A    between atoms: _420  and  _421
REMARK  171  A    between atoms: _420  and  _423
REMARK  172  A    between atoms: _423  and  _424
REMARK  173  A    between atoms: _424  and  _425
REMARK  174  A    between atoms: _430  and  _432
REMARK  175  A    between atoms: _432  and  _433
REMARK  176  A    between atoms: _432  and  _435
REMARK  177  A    between atoms: _435  and  _436
REMARK  178  A    between atoms: _439  and  _441
REMARK  179  A    between atoms: _441  and  _442
REMARK  180  A    between atoms: _441  and  _444
REMARK  181  A    between atoms: _444  and  _445
REMARK  182  A    between atoms: _448  and  _450
REMARK  183  A    between atoms: _450  and  _451
REMARK  184  A    between atoms: _450  and  _453
REMARK  185  A    between atoms: _453  and  _454
REMARK  186  A    between atoms: _457  and  _459
REMARK  187  A    between atoms: _459  and  _460
REMARK  188  A    between atoms: _459  and  _462
REMARK  189  A    between atoms: _462  and  _463
REMARK  190  A    between atoms: _466  and  _468
REMARK  191  A    between atoms: _468  and  _469
REMARK  192  A    between atoms: _468  and  _471
REMARK  193  A    between atoms: _471  and  _472
REMARK  194  A    between atoms: _477  and  _478
REMARK  195  A    between atoms: _480  and  _482
REMARK  196  A    between atoms: _482  and  _483
REMARK  197  A    between atoms: _482  and  _485
REMARK  198  A    between atoms: _485  and  _486
REMARK  199  A    between atoms: _486  and  _487
REMARK  200  A    between atoms: _490  and  _492
REMARK  201  A    between atoms: _492  and  _493
REMARK  202  A    between atoms: _495  and  _497
REMARK  203  A    between atoms: _497  and  _498
REMARK  204  A    between atoms: _497  and  _500
REMARK  205  A    between atoms: _500  and  _501
REMARK  206  A    between atoms: _504  and  _506
REMARK  207  A    between atoms: _506  and  _507
REMARK  208  A    between atoms: _506  and  _509
REMARK  209  A    between atoms: _509  and  _510
REMARK  210  A    between atoms: _513  and  _515
REMARK  211  A    between atoms: _515  and  _516
REMARK  212  A    between atoms: _515  and  _518
REMARK  213  A    between atoms: _518  and  _519
REMARK  214  A    between atoms: _519  and  _520
REMARK  215  A    between atoms: _520  and  _521
REMARK  216  A    between atoms: _530  and  _532
REMARK  217  A    between atoms: _532  and  _533
REMARK  218  A    between atoms: _532  and  _535
REMARK  219  A    between atoms: _535  and  _536
REMARK  220  A    between atoms: _539  and  _541
REMARK  221  A    between atoms: _541  and  _542
REMARK  222  A    between atoms: _541  and  _544
REMARK  223  A    between atoms: _544  and  _545
REMARK  224  A    between atoms: _551  and  _553
REMARK  225  A    between atoms: _553  and  _554
REMARK  226  A    between atoms: _553  and  _556
REMARK  227  A    between atoms: _556  and  _557
REMARK  228  A    between atoms: _562  and  _564
REMARK  229  A    between atoms: _564  and  _565
REMARK  230  A    between atoms: _564  and  _567
REMARK  231  A    between atoms: _567  and  _568
REMARK  232  A    between atoms: _571  and  _573
REMARK  233  A    between atoms: _573  and  _574
REMARK  234  A    between atoms: _573  and  _576
REMARK  235  A    between atoms: _576  and  _577
REMARK  236  A    between atoms: _582  and  _583
REMARK                            x       y       z     vdW  Elec       q    Type
REMARK                         _______ _______ _______ _____ _____    ______ ____
ROOT
ATOM      1  O   HOH     1      15.600   7.879  -1.489  0.00  0.00    +0.000 OA
ENDROOT
TORSDOF 0
REMARK  Name = ../refined-set-2016/4h75/4h75_pocket.pdb
REMARK  236 active torsions:
REMARK  status: ('A' for Active; 'I' for Inactive)
REMARK    1  A    between atoms: _1  and  _3
REMARK    2  A    between atoms: _3  and  _4
REMARK    3  A    between atoms: _3  and  _6
REMARK    4  A    between atoms: _6  and  _7
REMARK    5  A    between atoms: _17  and  _19
REMARK    6  A    between atoms: _19  and  _20
REMARK    7  A    between atoms: _19  and  _22
REMARK    8  A    between atoms: _22  and  _23
REMARK    9  A    between atoms: _23  and  _24
REMARK   10  A    between atoms: _24  and  _25
REMARK   11  A    between atoms: _25  and  _26
REMARK   12  A    between atoms: _30  and  _32
REMARK   13  A    between atoms: _32  and  _33
REMARK   14  A    between atoms: _32  and  _35
REMARK   15  A    between atoms: _35  and  _36
REMARK   16  A    between atoms: _41  and  _42
REMARK   17  A    between atoms: _44  and  _46
REMARK   18  A    between atoms: _46  and  _47
REMARK   19  A    between atoms: _46  and  _49
REMARK   20  A    between atoms: _49  and  _50
REMARK   21  A    between atoms: _53  and  _55
REMARK   22  A    between atoms: _55  and  _56
REMARK   23  A    between atoms: _58  and  _60
REMARK   24  A    between atoms: _60  and  _61
REMARK   25  A    between atoms: _60  and  _63
REMARK   26  A    between atoms: _63  and  _64
REMARK   27  A    between atoms: _70  and  _72
REMARK   28  A    between atoms: _72  and  _73
REMARK   29  A    between atoms: _72  and  _75
REMARK   30  A    between atoms: _75  and  _76
REMARK   31  A    between atoms: _79  and  _81
REMARK   32  A    between atoms: _81  and  _82
REMARK   33  A    between atoms: _81  and  _84
REMARK   34  A    between atoms: _86  and  _88
REMARK   35  A    between atoms: _88  and  _89
REMARK   36  A    between atoms: _88  and  _91
REMARK   37  A    between atoms: _94  and  _96
REMARK   38  A    between atoms: _96  and  _97
REMARK   39  A    between atoms: _96  and  _99
REMARK   40  A    between atoms: _99  and  _100
REMARK   41  A    between atoms: _105  and  _106
REMARK   42  A    between atoms: _108  and  _110
REMARK   43  A    between atoms: _110  and  _111
REMARK   44  A    between atoms: _110  and  _113
REMARK   45  A    between atoms: _113  and  _114
REMARK   46  A    between atoms: _119  and  _121
REMARK   47  A    between atoms: _121  and  _122
REMARK   48  A    between atoms: _121  and  _124
REMARK   49  A    between atoms: _124  and  _125
REMARK   50  A    between atoms: _125  and  _126
REMARK   51  A    between atoms: _128  and  _130
REMARK   52  A    between atoms: _130  and  _131
REMARK   53  A    between atoms: _130  and  _133
REMARK   54  A    between atoms: _133  and  _134
REMARK   55  A    between atoms: _140  and  _142
REMARK   56  A    between atoms: _142  and  _143
REMARK   57  A    between atoms: _142  and  _145
REMARK   58  A    between atoms: _145  and  _146
REMARK   59  A    between atoms: _146  and  _147
REMARK   60  A    between atoms: _150  and  _152
REMARK   61  A    between atoms: _152  and  _153
REMARK   62  A    between atoms: _152  and  _155
REMARK   63  A    between atoms: _155  and  _156
REMARK   64  A    between atoms: _159  and  _161
REMARK   65  A    between atoms: _161  and  _162
REMARK   66  A    between atoms: _161  and  _164
REMARK   67  A    between atoms: _164  and  _165
REMARK   68  A    between atoms: _165  and  _166
REMARK   69  A    between atoms: _169  and  _171
REMARK   70  A    between atoms: _171  and  _172
REMARK   71  A    between atoms: _171  and  _174
REMARK   72  A    between atoms: _174  and  _175
REMARK   73  A    between atoms: _178  and  _180
REMARK   74  A    between atoms: _180  and  _181
REMARK   75  A    between atoms: _183  and  _185
REMARK   76  A    between atoms: _185  and  _186
REMARK   77  A    between atoms: _185  and  _188
REMARK   78  A    between atoms: _188  and  _189
REMARK   79  A    between atoms: _191  and  _193
REMARK   80  A    between atoms: _193  and  _194
REMARK   81  A    between atoms: _193  and  _196
REMARK   82  A    between atoms: _196  and  _197
REMARK   83  A    between atoms: _197  and  _198
REMARK   84  A    between atoms: _198  and  _199
REMARK   85  A    between atoms: _199  and  _200
REMARK   86  A    between atoms: _204  and  _206
REMARK   87  A    between atoms: _206  and  _207
REMARK   88  A    between atoms: _206  and  _209
REMARK   89  A    between atoms: _209  and  _210
REMARK   90  A    between atoms: _213  and  _215
REMARK   91  A    between atoms: _215  and  _216
REMARK   92  A    between atoms: _215  and  _218
REMARK   93  A    between atoms: _218  and  _219
REMARK   94  A    between atoms: _219  and  _220
REMARK   95  A    between atoms: _223  and  _225
REMARK   96  A    between atoms: _225  and  _226
REMARK   97  A    between atoms: _225  and  _228
REMARK   98  A    between atoms: _228  and  _229
REMARK   99  A    between atoms: _239  and  _241
REMARK  100  A    between atoms: _241  and  _242
REMARK  101  A    between atoms: _241  and  _244
REMARK  102  A    between atoms: _244  and  _245
REMARK  103  A    between atoms: _245  and  _246
REMARK  104  A    between atoms: _246  and  _247
REMARK  105  A    between atoms: _256  and  _258
REMARK  106  A    between atoms: _258  and  _259
REMARK  107  A    between atoms: _258  and  _261
REMARK  108  A    between atoms: _261  and  _262
REMARK  109  A    between atoms: _265  and  _267
REMARK  110  A    between atoms: _267  and  _268
REMARK  111  A    between atoms: _267  and  _270
REMARK  112  A    between atoms: _270  and  _271
REMARK  113  A    between atoms: _281  and  _283
REMARK  114  A    between atoms: _283  and  _284
REMARK  115  A    between atoms: _283  and  _286
REMARK  116  A    between atoms: _286  and  _287
REMARK  117  A    between atoms: _293  and  _295
REMARK  118  A    between atoms: _295  and  _296
REMARK  119  A    between atoms: _295  and  _298
REMARK  120  A    between atoms: _298  and  _299
REMARK  121  A    between atoms: _302  and  _304
REMARK  122  A    between atoms: _304  and  _305
REMARK  123  A    between atoms: _304  and  _307
REMARK  124  A    between atoms: _307  and  _308
REMARK  125  A    between atoms: _311  and  _313
REMARK  126  A    between atoms: _313  and  _314
REMARK  127  A    between atoms: _313  and  _316
REMARK  128  A    between atoms: _316  and  _317
REMARK  129  A    between atoms: _322  and  _323
REMARK  130  A    between atoms: _325  and  _327
REMARK  131  A    between atoms: _327  and  _328
REMARK  132  A    between atoms: _327  and  _330
REMARK  133  A    between atoms: _330  and  _331
REMARK  134  A    between atoms: _331  and  _332
REMARK  135  A    between atoms: _335  and  _337
REMARK  136  A    between atoms: _337  and  _338
REMARK  137  A    between atoms: _337  and  _340
REMARK  138  A    between atoms: _340  and  _341
REMARK  139  A    between atoms: _341  and  _342
REMARK  140  A    between atoms: _342  and  _343
REMARK  141  A    between atoms: _343  and  _344
REMARK  142  A    between atoms: _348  and  _350
REMARK  143  A    between atoms: _350  and  _351
REMARK  144  A    between atoms: _350  and  _353
REMARK  145  A    between atoms: _353  and  _354
REMARK  146  A    between atoms: _358  and  _359
REMARK  147  A    between atoms: _364  and  _366
REMARK  148  A    between atoms: _366  and  _367
REMARK  149  A    between atoms: _366  and  _369
REMARK  150  A    between atoms: _372  and  _374
REMARK  151  A    between atoms: _374  and  _375
REMARK  152  A    between atoms: _374  and  _377
REMARK  153  A    between atoms: _377  and  _378
REMARK  154  A    between atoms: _381  and  _383
REMARK  155  A    between atoms: _383  and  _384
REMARK  156  A    between atoms: _383  and  _386
REMARK  157  A    between atoms: _386  and  _387
REMARK  158  A    between atoms: _392  and  _393
REMARK  159  A    between atoms: _395  and  _397
REMARK  160  A    between atoms: _397  and  _398
REMARK  161  A    between atoms: _397  and  _400
REMARK  162  A    between atoms: _400  and  _401
REMARK  163  A    between atoms: _401  and  _402
REMARK  164  A    between atoms: _404  and  _406
REMARK  165  A    between atoms: _406  and  _407
REMARK  166  A    between atoms: _406  and  _409
REMARK  167  A    between atoms: _409  and  _410
REMARK  168  A    between atoms: _415  and  _416
REMARK  169  A    between atoms: _418  and  _420
REMARK  170  A    between atoms: _420  and  _421
REMARK  171  A    between atoms: _420  and  _423
REMARK  172  A    between atoms: _423  and  _424
REMARK  173  A    between atoms: _424  and  _425
REMARK  174  A    between atoms: _430  and  _432
REMARK  175  A    between atoms: _432  and  _433
REMARK  176  A    between atoms: _432  and  _435
REMARK  177  A    between atoms: _435  and  _436
REMARK  178  A    between atoms: _439  and  _441
REMARK  179  A    between atoms: _441  and  _442
REMARK  180  A    between atoms: _441  and  _444
REMARK  181  A    between atoms: _444  and  _445
REMARK  182  A    between atoms: _448  and  _450
REMARK  183  A    between atoms: _450  and  _451
REMARK  184  A    between atoms: _450  and  _453
REMARK  185  A    between atoms: _453  and  _454
REMARK  186  A    between atoms: _457  and  _459
REMARK  187  A    between atoms: _459  and  _460
REMARK  188  A    between atoms: _459  and  _462
REMARK  189  A    between atoms: _462  and  _463
REMARK  190  A    between atoms: _466  and  _468
REMARK  191  A    between atoms: _468  and  _469
REMARK  192  A    between atoms: _468  and  _471
REMARK  193  A    between atoms: _471  and  _472
REMARK  194  A    between atoms: _477  and  _478
REMARK  195  A    between atoms: _480  and  _482
REMARK  196  A    between atoms: _482  and  _483
REMARK  197  A    between atoms: _482  and  _485
REMARK  198  A    between atoms: _485  and  _486
REMARK  199  A    between atoms: _486  and  _487
REMARK  200  A    between atoms: _490  and  _492
REMARK  201  A    between atoms: _492  and  _493
REMARK  202  A    between atoms: _495  and  _497
REMARK  203  A    between atoms: _497  and  _498
REMARK  204  A    between atoms: _497  and  _500
REMARK  205  A    between atoms: _500  and  _501
REMARK  206  A    between atoms: _504  and  _506
REMARK  207  A    between atoms: _506  and  _507
REMARK  208  A    between atoms: _506  and  _509
REMARK  209  A    between atoms: _509  and  _510
REMARK  210  A    between atoms: _513  and  _515
REMARK  211  A    between atoms: _515  and  _516
REMARK  212  A    between atoms: _515  and  _518
REMARK  213  A    between atoms: _518  and  _519
REMARK  214  A    between atoms: _519  and  _520
REMARK  215  A    between atoms: _520  and  _521
REMARK  216  A    between atoms: _530  and  _532
REMARK  217  A    between atoms: _532  and  _533
REMARK  218  A    between atoms: _532  and  _535
REMARK  219  A    between atoms: _535  and  _536
REMARK  220  A    between atoms: _539  and  _541
REMARK  221  A    between atoms: _541  and  _542
REMARK  222  A    between atoms: _541  and  _544
REMARK  223  A    between atoms: _544  and  _545
REMARK  224  A    between atoms: _551  and  _553
REMARK  225  A    between atoms: _553  and  _554
REMARK  226  A    between atoms: _553  and  _556
REMARK  227  A    between atoms: _556  and  _557
REMARK  228  A    between atoms: _562  and  _564
REMARK  229  A    between atoms: _564  and  _565
REMARK  230  A    between atoms: _564  and  _567
REMARK  231  A    between atoms: _567  and  _568
REMARK  232  A    between atoms: _571  and  _573
REMARK  233  A    between atoms: _573  and  _574
REMARK  234  A    between atoms: _573  and  _576
REMARK  235  A    between atoms: _576  and  _577
REMARK  236  A    between atoms: _582  and  _583
REMARK                            x       y       z     vdW  Elec       q    Type
REMARK                         _______ _______ _______ _____ _____    ______ ____
ROOT
ATOM      1  O   HOH     1      15.597  14.525   0.764  0.00  0.00    +0.000 OA
ENDROOT
TORSDOF 0
REMARK  Name = ../refined-set-2016/4h75/4h75_pocket.pdb
REMARK  236 active torsions:
REMARK  status: ('A' for Active; 'I' for Inactive)
REMARK    1  A    between atoms: _1  and  _3
REMARK    2  A    between atoms: _3  and  _4
REMARK    3  A    between atoms: _3  and  _6
REMARK    4  A    between atoms: _6  and  _7
REMARK    5  A    between atoms: _17  and  _19
REMARK    6  A    between atoms: _19  and  _20
REMARK    7  A    between atoms: _19  and  _22
REMARK    8  A    between atoms: _22  and  _23
REMARK    9  A    between atoms: _23  and  _24
REMARK   10  A    between atoms: _24  and  _25
REMARK   11  A    between atoms: _25  and  _26
REMARK   12  A    between atoms: _30  and  _32
REMARK   13  A    between atoms: _32  and  _33
REMARK   14  A    between atoms: _32  and  _35
REMARK   15  A    between atoms: _35  and  _36
REMARK   16  A    between atoms: _41  and  _42
REMARK   17  A    between atoms: _44  and  _46
REMARK   18  A    between atoms: _46  and  _47
REMARK   19  A    between atoms: _46  and  _49
REMARK   20  A    between atoms: _49  and  _50
REMARK   21  A    between atoms: _53  and  _55
REMARK   22  A    between atoms: _55  and  _56
REMARK   23  A    between atoms: _58  and  _60
REMARK   24  A    between atoms: _60  and  _61
REMARK   25  A    between atoms: _60  and  _63
REMARK   26  A    between atoms: _63  and  _64
REMARK   27  A    between atoms: _70  and  _72
REMARK   28  A    between atoms: _72  and  _73
REMARK   29  A    between atoms: _72  and  _75
REMARK   30  A    between atoms: _75  and  _76
REMARK   31  A    between atoms: _79  and  _81
REMARK   32  A    between atoms: _81  and  _82
REMARK   33  A    between atoms: _81  and  _84
REMARK   34  A    between atoms: _86  and  _88
REMARK   35  A    between atoms: _88  and  _89
REMARK   36  A    between atoms: _88  and  _91
REMARK   37  A    between atoms: _94  and  _96
REMARK   38  A    between atoms: _96  and  _97
REMARK   39  A    between atoms: _96  and  _99
REMARK   40  A    between atoms: _99  and  _100
REMARK   41  A    between atoms: _105  and  _106
REMARK   42  A    between atoms: _108  and  _110
REMARK   43  A    between atoms: _110  and  _111
REMARK   44  A    between atoms: _110  and  _113
REMARK   45  A    between atoms: _113  and  _114
REMARK   46  A    between atoms: _119  and  _121
REMARK   47  A    between atoms: _121  and  _122
REMARK   48  A    between atoms: _121  and  _124
REMARK   49  A    between atoms: _124  and  _125
REMARK   50  A    between atoms: _125  and  _126
REMARK   51  A    between atoms: _128  and  _130
REMARK   52  A    between atoms: _130  and  _131
REMARK   53  A    between atoms: _130  and  _133
REMARK   54  A    between atoms: _133  and  _134
REMARK   55  A    between atoms: _140  and  _142
REMARK   56  A    between atoms: _142  and  _143
REMARK   57  A    between atoms: _142  and  _145
REMARK   58  A    between atoms: _145  and  _146
REMARK   59  A    between atoms: _146  and  _147
REMARK   60  A    between atoms: _150  and  _152
REMARK   61  A    between atoms: _152  and  _153
REMARK   62  A    between atoms: _152  and  _155
REMARK   63  A    between atoms: _155  and  _156
REMARK   64  A    between atoms: _159  and  _161
REMARK   65  A    between atoms: _161  and  _162
REMARK   66  A    between atoms: _161  and  _164
REMARK   67  A    between atoms: _164  and  _165
REMARK   68  A    between atoms: _165  and  _166
REMARK   69  A    between atoms: _169  and  _171
REMARK   70  A    between atoms: _171  and  _172
REMARK   71  A    between atoms: _171  and  _174
REMARK   72  A    between atoms: _174  and  _175
REMARK   73  A    between atoms: _178  and  _180
REMARK   74  A    between atoms: _180  and  _181
REMARK   75  A    between atoms: _183  and  _185
REMARK   76  A    between atoms: _185  and  _186
REMARK   77  A    between atoms: _185  and  _188
REMARK   78  A    between atoms: _188  and  _189
REMARK   79  A    between atoms: _191  and  _193
REMARK   80  A    between atoms: _193  and  _194
REMARK   81  A    between atoms: _193  and  _196
REMARK   82  A    between atoms: _196  and  _197
REMARK   83  A    between atoms: _197  and  _198
REMARK   84  A    between atoms: _198  and  _199
REMARK   85  A    between atoms: _199  and  _200
REMARK   86  A    between atoms: _204  and  _206
REMARK   87  A    between atoms: _206  and  _207
REMARK   88  A    between atoms: _206  and  _209
REMARK   89  A    between atoms: _209  and  _210
REMARK   90  A    between atoms: _213  and  _215
REMARK   91  A    between atoms: _215  and  _216
REMARK   92  A    between atoms: _215  and  _218
REMARK   93  A    between atoms: _218  and  _219
REMARK   94  A    between atoms: _219  and  _220
REMARK   95  A    between atoms: _223  and  _225
REMARK   96  A    between atoms: _225  and  _226
REMARK   97  A    between atoms: _225  and  _228
REMARK   98  A    between atoms: _228  and  _229
REMARK   99  A    between atoms: _239  and  _241
REMARK  100  A    between atoms: _241  and  _242
REMARK  101  A    between atoms: _241  and  _244
REMARK  102  A    between atoms: _244  and  _245
REMARK  103  A    between atoms: _245  and  _246
REMARK  104  A    between atoms: _246  and  _247
REMARK  105  A    between atoms: _256  and  _258
REMARK  106  A    between atoms: _258  and  _259
REMARK  107  A    between atoms: _258  and  _261
REMARK  108  A    between atoms: _261  and  _262
REMARK  109  A    between atoms: _265  and  _267
REMARK  110  A    between atoms: _267  and  _268
REMARK  111  A    between atoms: _267  and  _270
REMARK  112  A    between atoms: _270  and  _271
REMARK  113  A    between atoms: _281  and  _283
REMARK  114  A    between atoms: _283  and  _284
REMARK  115  A    between atoms: _283  and  _286
REMARK  116  A    between atoms: _286  and  _287
REMARK  117  A    between atoms: _293  and  _295
REMARK  118  A    between atoms: _295  and  _296
REMARK  119  A    between atoms: _295  and  _298
REMARK  120  A    between atoms: _298  and  _299
REMARK  121  A    between atoms: _302  and  _304
REMARK  122  A    between atoms: _304  and  _305
REMARK  123  A    between atoms: _304  and  _307
REMARK  124  A    between atoms: _307  and  _308
REMARK  125  A    between atoms: _311  and  _313
REMARK  126  A    between atoms: _313  and  _314
REMARK  127  A    between atoms: _313  and  _316
REMARK  128  A    between atoms: _316  and  _317
REMARK  129  A    between atoms: _322  and  _323
REMARK  130  A    between atoms: _325  and  _327
REMARK  131  A    between atoms: _327  and  _328
REMARK  132  A    between atoms: _327  and  _330
REMARK  133  A    between atoms: _330  and  _331
REMARK  134  A    between atoms: _331  and  _332
REMARK  135  A    between atoms: _335  and  _337
REMARK  136  A    between atoms: _337  and  _338
REMARK  137  A    between atoms: _337  and  _340
REMARK  138  A    between atoms: _340  and  _341
REMARK  139  A    between atoms: _341  and  _342
REMARK  140  A    between atoms: _342  and  _343
REMARK  141  A    between atoms: _343  and  _344
REMARK  142  A    between atoms: _348  and  _350
REMARK  143  A    between atoms: _350  and  _351
REMARK  144  A    between atoms: _350  and  _353
REMARK  145  A    between atoms: _353  and  _354
REMARK  146  A    between atoms: _358  and  _359
REMARK  147  A    between atoms: _364  and  _366
REMARK  148  A    between atoms: _366  and  _367
REMARK  149  A    between atoms: _366  and  _369
REMARK  150  A    between atoms: _372  and  _374
REMARK  151  A    between atoms: _374  and  _375
REMARK  152  A    between atoms: _374  and  _377
REMARK  153  A    between atoms: _377  and  _378
REMARK  154  A    between atoms: _381  and  _383
REMARK  155  A    between atoms: _383  and  _384
REMARK  156  A    between atoms: _383  and  _386
REMARK  157  A    between atoms: _386  and  _387
REMARK  158  A    between atoms: _392  and  _393
REMARK  159  A    between atoms: _395  and  _397
REMARK  160  A    between atoms: _397  and  _398
REMARK  161  A    between atoms: _397  and  _400
REMARK  162  A    between atoms: _400  and  _401
REMARK  163  A    between atoms: _401  and  _402
REMARK  164  A    between atoms: _404  and  _406
REMARK  165  A    between atoms: _406  and  _407
REMARK  166  A    between atoms: _406  and  _409
REMARK  167  A    between atoms: _409  and  _410
REMARK  168  A    between atoms: _415  and  _416
REMARK  169  A    between atoms: _418  and  _420
REMARK  170  A    between atoms: _420  and  _421
REMARK  171  A    between atoms: _420  and  _423
REMARK  172  A    between atoms: _423  and  _424
REMARK  173  A    between atoms: _424  and  _425
REMARK  174  A    between atoms: _430  and  _432
REMARK  175  A    between atoms: _432  and  _433
REMARK  176  A    between atoms: _432  and  _435
REMARK  177  A    between atoms: _435  and  _436
REMARK  178  A    between atoms: _439  and  _441
REMARK  179  A    between atoms: _441  and  _442
REMARK  180  A    between atoms: _441  and  _444
REMARK  181  A    between atoms: _444  and  _445
REMARK  182  A    between atoms: _448  and  _450
REMARK  183  A    between atoms: _450  and  _451
REMARK  184  A    between atoms: _450  and  _453
REMARK  185  A    between atoms: _453  and  _454
REMARK  186  A    between atoms: _457  and  _459
REMARK  187  A    between atoms: _459  and  _460
REMARK  188  A    between atoms: _459  and  _462
REMARK  189  A    between atoms: _462  and  _463
REMARK  190  A    between atoms: _466  and  _468
REMARK  191  A    between atoms: _468  and  _469
REMARK  192  A    between atoms: _468  and  _471
REMARK  193  A    between atoms: _471  and  _472
REMARK  194  A    between atoms: _477  and  _478
REMARK  195  A    between atoms: _480  and  _482
REMARK  196  A    between atoms: _482  and  _483
REMARK  197  A    between atoms: _482  and  _485
REMARK  198  A    between atoms: _485  and  _486
REMARK  199  A    between atoms: _486  and  _487
REMARK  200  A    between atoms: _490  and  _492
REMARK  201  A    between atoms: _492  and  _493
REMARK  202  A    between atoms: _495  and  _497
REMARK  203  A    between atoms: _497  and  _498
REMARK  204  A    between atoms: _497  and  _500
REMARK  205  A    between atoms: _500  and  _501
REMARK  206  A    between atoms: _504  and  _506
REMARK  207  A    between atoms: _506  and  _507
REMARK  208  A    between atoms: _506  and  _509
REMARK  209  A    between atoms: _509  and  _510
REMARK  210  A    between atoms: _513  and  _515
REMARK  211  A    between atoms: _515  and  _516
REMARK  212  A    between atoms: _515  and  _518
REMARK  213  A    between atoms: _518  and  _519
REMARK  214  A    between atoms: _519  and  _520
REMARK  215  A    between atoms: _520  and  _521
REMARK  216  A    between atoms: _530  and  _532
REMARK  217  A    between atoms: _532  and  _533
REMARK  218  A    between atoms: _532  and  _535
REMARK  219  A    between atoms: _535  and  _536
REMARK  220  A    between atoms: _539  and  _541
REMARK  221  A    between atoms: _541  and  _542
REMARK  222  A    between atoms: _541  and  _544
REMARK  223  A    between atoms: _544  and  _545
REMARK  224  A    between atoms: _551  and  _553
REMARK  225  A    between atoms: _553  and  _554
REMARK  226  A    between atoms: _553  and  _556
REMARK  227  A    between atoms: _556  and  _557
REMARK  228  A    between atoms: _562  and  _564
REMARK  229  A    between atoms: _564  and  _565
REMARK  230  A    between atoms: _564  and  _567
REMARK  231  A    between atoms: _567  and  _568
REMARK  232  A    between atoms: _571  and  _573
REMARK  233  A    between atoms: _573  and  _574
REMARK  234  A    between atoms: _573  and  _576
REMARK  235  A    between atoms: _576  and  _577
REMARK  236  A    between atoms: _582  and  _583
REMARK                            x       y       z     vdW  Elec       q    Type
REMARK                         _______ _______ _______ _____ _____    ______ ____
ROOT
ATOM      1  O   HOH     1      21.354   3.802   1.882  0.00  0.00    +0.000 OA
ENDROOT
TORSDOF 0
REMARK  Name = ../refined-set-2016/4h75/4h75_pocket.pdb
REMARK  236 active torsions:
REMARK  status: ('A' for Active; 'I' for Inactive)
REMARK    1  A    between atoms: _1  and  _3
REMARK    2  A    between atoms: _3  and  _4
REMARK    3  A    between atoms: _3  and  _6
REMARK    4  A    between atoms: _6  and  _7
REMARK    5  A    between atoms: _17  and  _19
REMARK    6  A    between atoms: _19  and  _20
REMARK    7  A    between atoms: _19  and  _22
REMARK    8  A    between atoms: _22  and  _23
REMARK    9  A    between atoms: _23  and  _24
REMARK   10  A    between atoms: _24  and  _25
REMARK   11  A    between atoms: _25  and  _26
REMARK   12  A    between atoms: _30  and  _32
REMARK   13  A    between atoms: _32  and  _33
REMARK   14  A    between atoms: _32  and  _35
REMARK   15  A    between atoms: _35  and  _36
REMARK   16  A    between atoms: _41  and  _42
REMARK   17  A    between atoms: _44  and  _46
REMARK   18  A    between atoms: _46  and  _47
REMARK   19  A    between atoms: _46  and  _49
REMARK   20  A    between atoms: _49  and  _50
REMARK   21  A    between atoms: _53  and  _55
REMARK   22  A    between atoms: _55  and  _56
REMARK   23  A    between atoms: _58  and  _60
REMARK   24  A    between atoms: _60  and  _61
REMARK   25  A    between atoms: _60  and  _63
REMARK   26  A    between atoms: _63  and  _64
REMARK   27  A    between atoms: _70  and  _72
REMARK   28  A    between atoms: _72  and  _73
REMARK   29  A    between atoms: _72  and  _75
REMARK   30  A    between atoms: _75  and  _76
REMARK   31  A    between atoms: _79  and  _81
REMARK   32  A    between atoms: _81  and  _82
REMARK   33  A    between atoms: _81  and  _84
REMARK   34  A    between atoms: _86  and  _88
REMARK   35  A    between atoms: _88  and  _89
REMARK   36  A    between atoms: _88  and  _91
REMARK   37  A    between atoms: _94  and  _96
REMARK   38  A    between atoms: _96  and  _97
REMARK   39  A    between atoms: _96  and  _99
REMARK   40  A    between atoms: _99  and  _100
REMARK   41  A    between atoms: _105  and  _106
REMARK   42  A    between atoms: _108  and  _110
REMARK   43  A    between atoms: _110  and  _111
REMARK   44  A    between atoms: _110  and  _113
REMARK   45  A    between atoms: _113  and  _114
REMARK   46  A    between atoms: _119  and  _121
REMARK   47  A    between atoms: _121  and  _122
REMARK   48  A    between atoms: _121  and  _124
REMARK   49  A    between atoms: _124  and  _125
REMARK   50  A    between atoms: _125  and  _126
REMARK   51  A    between atoms: _128  and  _130
REMARK   52  A    between atoms: _130  and  _131
REMARK   53  A    between atoms: _130  and  _133
REMARK   54  A    between atoms: _133  and  _134
REMARK   55  A    between atoms: _140  and  _142
REMARK   56  A    between atoms: _142  and  _143
REMARK   57  A    between atoms: _142  and  _145
REMARK   58  A    between atoms: _145  and  _146
REMARK   59  A    between atoms: _146  and  _147
REMARK   60  A    between atoms: _150  and  _152
REMARK   61  A    between atoms: _152  and  _153
REMARK   62  A    between atoms: _152  and  _155
REMARK   63  A    between atoms: _155  and  _156
REMARK   64  A    between atoms: _159  and  _161
REMARK   65  A    between atoms: _161  and  _162
REMARK   66  A    between atoms: _161  and  _164
REMARK   67  A    between atoms: _164  and  _165
REMARK   68  A    between atoms: _165  and  _166
REMARK   69  A    between atoms: _169  and  _171
REMARK   70  A    between atoms: _171  and  _172
REMARK   71  A    between atoms: _171  and  _174
REMARK   72  A    between atoms: _174  and  _175
REMARK   73  A    between atoms: _178  and  _180
REMARK   74  A    between atoms: _180  and  _181
REMARK   75  A    between atoms: _183  and  _185
REMARK   76  A    between atoms: _185  and  _186
REMARK   77  A    between atoms: _185  and  _188
REMARK   78  A    between atoms: _188  and  _189
REMARK   79  A    between atoms: _191  and  _193
REMARK   80  A    between atoms: _193  and  _194
REMARK   81  A    between atoms: _193  and  _196
REMARK   82  A    between atoms: _196  and  _197
REMARK   83  A    between atoms: _197  and  _198
REMARK   84  A    between atoms: _198  and  _199
REMARK   85  A    between atoms: _199  and  _200
REMARK   86  A    between atoms: _204  and  _206
REMARK   87  A    between atoms: _206  and  _207
REMARK   88  A    between atoms: _206  and  _209
REMARK   89  A    between atoms: _209  and  _210
REMARK   90  A    between atoms: _213  and  _215
REMARK   91  A    between atoms: _215  and  _216
REMARK   92  A    between atoms: _215  and  _218
REMARK   93  A    between atoms: _218  and  _219
REMARK   94  A    between atoms: _219  and  _220
REMARK   95  A    between atoms: _223  and  _225
REMARK   96  A    between atoms: _225  and  _226
REMARK   97  A    between atoms: _225  and  _228
REMARK   98  A    between atoms: _228  and  _229
REMARK   99  A    between atoms: _239  and  _241
REMARK  100  A    between atoms: _241  and  _242
REMARK  101  A    between atoms: _241  and  _244
REMARK  102  A    between atoms: _244  and  _245
REMARK  103  A    between atoms: _245  and  _246
REMARK  104  A    between atoms: _246  and  _247
REMARK  105  A    between atoms: _256  and  _258
REMARK  106  A    between atoms: _258  and  _259
REMARK  107  A    between atoms: _258  and  _261
REMARK  108  A    between atoms: _261  and  _262
REMARK  109  A    between atoms: _265  and  _267
REMARK  110  A    between atoms: _267  and  _268
REMARK  111  A    between atoms: _267  and  _270
REMARK  112  A    between atoms: _270  and  _271
REMARK  113  A    between atoms: _281  and  _283
REMARK  114  A    between atoms: _283  and  _284
REMARK  115  A    between atoms: _283  and  _286
REMARK  116  A    between atoms: _286  and  _287
REMARK  117  A    between atoms: _293  and  _295
REMARK  118  A    between atoms: _295  and  _296
REMARK  119  A    between atoms: _295  and  _298
REMARK  120  A    between atoms: _298  and  _299
REMARK  121  A    between atoms: _302  and  _304
REMARK  122  A    between atoms: _304  and  _305
REMARK  123  A    between atoms: _304  and  _307
REMARK  124  A    between atoms: _307  and  _308
REMARK  125  A    between atoms: _311  and  _313
REMARK  126  A    between atoms: _313  and  _314
REMARK  127  A    between atoms: _313  and  _316
REMARK  128  A    between atoms: _316  and  _317
REMARK  129  A    between atoms: _322  and  _323
REMARK  130  A    between atoms: _325  and  _327
REMARK  131  A    between atoms: _327  and  _328
REMARK  132  A    between atoms: _327  and  _330
REMARK  133  A    between atoms: _330  and  _331
REMARK  134  A    between atoms: _331  and  _332
REMARK  135  A    between atoms: _335  and  _337
REMARK  136  A    between atoms: _337  and  _338
REMARK  137  A    between atoms: _337  and  _340
REMARK  138  A    between atoms: _340  and  _341
REMARK  139  A    between atoms: _341  and  _342
REMARK  140  A    between atoms: _342  and  _343
REMARK  141  A    between atoms: _343  and  _344
REMARK  142  A    between atoms: _348  and  _350
REMARK  143  A    between atoms: _350  and  _351
REMARK  144  A    between atoms: _350  and  _353
REMARK  145  A    between atoms: _353  and  _354
REMARK  146  A    between atoms: _358  and  _359
REMARK  147  A    between atoms: _364  and  _366
REMARK  148  A    between atoms: _366  and  _367
REMARK  149  A    between atoms: _366  and  _369
REMARK  150  A    between atoms: _372  and  _374
REMARK  151  A    between atoms: _374  and  _375
REMARK  152  A    between atoms: _374  and  _377
REMARK  153  A    between atoms: _377  and  _378
REMARK  154  A    between atoms: _381  and  _383
REMARK  155  A    between atoms: _383  and  _384
REMARK  156  A    between atoms: _383  and  _386
REMARK  157  A    between atoms: _386  and  _387
REMARK  158  A    between atoms: _392  and  _393
REMARK  159  A    between atoms: _395  and  _397
REMARK  160  A    between atoms: _397  and  _398
REMARK  161  A    between atoms: _397  and  _400
REMARK  162  A    between atoms: _400  and  _401
REMARK  163  A    between atoms: _401  and  _402
REMARK  164  A    between atoms: _404  and  _406
REMARK  165  A    between atoms: _406  and  _407
REMARK  166  A    between atoms: _406  and  _409
REMARK  167  A    between atoms: _409  and  _410
REMARK  168  A    between atoms: _415  and  _416
REMARK  169  A    between atoms: _418  and  _420
REMARK  170  A    between atoms: _420  and  _421
REMARK  171  A    between atoms: _420  and  _423
REMARK  172  A    between atoms: _423  and  _424
REMARK  173  A    between atoms: _424  and  _425
REMARK  174  A    between atoms: _430  and  _432
REMARK  175  A    between atoms: _432  and  _433
REMARK  176  A    between atoms: _432  and  _435
REMARK  177  A    between atoms: _435  and  _436
REMARK  178  A    between atoms: _439  and  _441
REMARK  179  A    between atoms: _441  and  _442
REMARK  180  A    between atoms: _441  and  _444
REMARK  181  A    between atoms: _444  and  _445
REMARK  182  A    between atoms: _448  and  _450
REMARK  183  A    between atoms: _450  and  _451
REMARK  184  A    between atoms: _450  and  _453
REMARK  185  A    between atoms: _453  and  _454
REMARK  186  A    between atoms: _457  and  _459
REMARK  187  A    between atoms: _459  and  _460
REMARK  188  A    between atoms: _459  and  _462
REMARK  189  A    between atoms: _462  and  _463
REMARK  190  A    between atoms: _466  and  _468
REMARK  191  A    between atoms: _468  and  _469
REMARK  192  A    between atoms: _468  and  _471
REMARK  193  A    between atoms: _471  and  _472
REMARK  194  A    between atoms: _477  and  _478
REMARK  195  A    between atoms: _480  and  _482
REMARK  196  A    between atoms: _482  and  _483
REMARK  197  A    between atoms: _482  and  _485
REMARK  198  A    between atoms: _485  and  _486
REMARK  199  A    between atoms: _486  and  _487
REMARK  200  A    between atoms: _490  and  _492
REMARK  201  A    between atoms: _492  and  _493
REMARK  202  A    between atoms: _495  and  _497
REMARK  203  A    between atoms: _497  and  _498
REMARK  204  A    between atoms: _497  and  _500
REMARK  205  A    between atoms: _500  and  _501
REMARK  206  A    between atoms: _504  and  _506
REMARK  207  A    between atoms: _506  and  _507
REMARK  208  A    between atoms: _506  and  _509
REMARK  209  A    between atoms: _509  and  _510
REMARK  210  A    between atoms: _513  and  _515
REMARK  211  A    between atoms: _515  and  _516
REMARK  212  A    between atoms: _515  and  _518
REMARK  213  A    between atoms: _518  and  _519
REMARK  214  A    between atoms: _519  and  _520
REMARK  215  A    between atoms: _520  and  _521
REMARK  216  A    between atoms: _530  and  _532
REMARK  217  A    between atoms: _532  and  _533
REMARK  218  A    between atoms: _532  and  _535
REMARK  219  A    between atoms: _535  and  _536
REMARK  220  A    between atoms: _539  and  _541
REMARK  221  A    between atoms: _541  and  _542
REMARK  222  A    between atoms: _541  and  _544
REMARK  223  A    between atoms: _544  and  _545
REMARK  224  A    between atoms: _551  and  _553
REMARK  225  A    between atoms: _553  and  _554
REMARK  226  A    between atoms: _553  and  _556
REMARK  227  A    between atoms: _556  and  _557
REMARK  228  A    between atoms: _562  and  _564
REMARK  229  A    between atoms: _564  and  _565
REMARK  230  A    between atoms: _564  and  _567
REMARK  231  A    between atoms: _567  and  _568
REMARK  232  A    between atoms: _571  and  _573
REMARK  233  A    between atoms: _573  and  _574
REMARK  234  A    between atoms: _573  and  _576
REMARK  235  A    between atoms: _576  and  _577
REMARK  236  A    between atoms: _582  and  _583
REMARK                            x       y       z     vdW  Elec       q    Type
REMARK                         _______ _______ _______ _____ _____    ______ ____
ROOT
ATOM      1  O   HOH     1      16.880   2.336   2.988  0.00  0.00    +0.000 OA
ENDROOT
TORSDOF 0
REMARK  Name = ../refined-set-2016/4h75/4h75_pocket.pdb
REMARK  236 active torsions:
REMARK  status: ('A' for Active; 'I' for Inactive)
REMARK    1  A    between atoms: _1  and  _3
REMARK    2  A    between atoms: _3  and  _4
REMARK    3  A    between atoms: _3  and  _6
REMARK    4  A    between atoms: _6  and  _7
REMARK    5  A    between atoms: _17  and  _19
REMARK    6  A    between atoms: _19  and  _20
REMARK    7  A    between atoms: _19  and  _22
REMARK    8  A    between atoms: _22  and  _23
REMARK    9  A    between atoms: _23  and  _24
REMARK   10  A    between atoms: _24  and  _25
REMARK   11  A    between atoms: _25  and  _26
REMARK   12  A    between atoms: _30  and  _32
REMARK   13  A    between atoms: _32  and  _33
REMARK   14  A    between atoms: _32  and  _35
REMARK   15  A    between atoms: _35  and  _36
REMARK   16  A    between atoms: _41  and  _42
REMARK   17  A    between atoms: _44  and  _46
REMARK   18  A    between atoms: _46  and  _47
REMARK   19  A    between atoms: _46  and  _49
REMARK   20  A    between atoms: _49  and  _50
REMARK   21  A    between atoms: _53  and  _55
REMARK   22  A    between atoms: _55  and  _56
REMARK   23  A    between atoms: _58  and  _60
REMARK   24  A    between atoms: _60  and  _61
REMARK   25  A    between atoms: _60  and  _63
REMARK   26  A    between atoms: _63  and  _64
REMARK   27  A    between atoms: _70  and  _72
REMARK   28  A    between atoms: _72  and  _73
REMARK   29  A    between atoms: _72  and  _75
REMARK   30  A    between atoms: _75  and  _76
REMARK   31  A    between atoms: _79  and  _81
REMARK   32  A    between atoms: _81  and  _82
REMARK   33  A    between atoms: _81  and  _84
REMARK   34  A    between atoms: _86  and  _88
REMARK   35  A    between atoms: _88  and  _89
REMARK   36  A    between atoms: _88  and  _91
REMARK   37  A    between atoms: _94  and  _96
REMARK   38  A    between atoms: _96  and  _97
REMARK   39  A    between atoms: _96  and  _99
REMARK   40  A    between atoms: _99  and  _100
REMARK   41  A    between atoms: _105  and  _106
REMARK   42  A    between atoms: _108  and  _110
REMARK   43  A    between atoms: _110  and  _111
REMARK   44  A    between atoms: _110  and  _113
REMARK   45  A    between atoms: _113  and  _114
REMARK   46  A    between atoms: _119  and  _121
REMARK   47  A    between atoms: _121  and  _122
REMARK   48  A    between atoms: _121  and  _124
REMARK   49  A    between atoms: _124  and  _125
REMARK   50  A    between atoms: _125  and  _126
REMARK   51  A    between atoms: _128  and  _130
REMARK   52  A    between atoms: _130  and  _131
REMARK   53  A    between atoms: _130  and  _133
REMARK   54  A    between atoms: _133  and  _134
REMARK   55  A    between atoms: _140  and  _142
REMARK   56  A    between atoms: _142  and  _143
REMARK   57  A    between atoms: _142  and  _145
REMARK   58  A    between atoms: _145  and  _146
REMARK   59  A    between atoms: _146  and  _147
REMARK   60  A    between atoms: _150  and  _152
REMARK   61  A    between atoms: _152  and  _153
REMARK   62  A    between atoms: _152  and  _155
REMARK   63  A    between atoms: _155  and  _156
REMARK   64  A    between atoms: _159  and  _161
REMARK   65  A    between atoms: _161  and  _162
REMARK   66  A    between atoms: _161  and  _164
REMARK   67  A    between atoms: _164  and  _165
REMARK   68  A    between atoms: _165  and  _166
REMARK   69  A    between atoms: _169  and  _171
REMARK   70  A    between atoms: _171  and  _172
REMARK   71  A    between atoms: _171  and  _174
REMARK   72  A    between atoms: _174  and  _175
REMARK   73  A    between atoms: _178  and  _180
REMARK   74  A    between atoms: _180  and  _181
REMARK   75  A    between atoms: _183  and  _185
REMARK   76  A    between atoms: _185  and  _186
REMARK   77  A    between atoms: _185  and  _188
REMARK   78  A    between atoms: _188  and  _189
REMARK   79  A    between atoms: _191  and  _193
REMARK   80  A    between atoms: _193  and  _194
REMARK   81  A    between atoms: _193  and  _196
REMARK   82  A    between atoms: _196  and  _197
REMARK   83  A    between atoms: _197  and  _198
REMARK   84  A    between atoms: _198  and  _199
REMARK   85  A    between atoms: _199  and  _200
REMARK   86  A    between atoms: _204  and  _206
REMARK   87  A    between atoms: _206  and  _207
REMARK   88  A    between atoms: _206  and  _209
REMARK   89  A    between atoms: _209  and  _210
REMARK   90  A    between atoms: _213  and  _215
REMARK   91  A    between atoms: _215  and  _216
REMARK   92  A    between atoms: _215  and  _218
REMARK   93  A    between atoms: _218  and  _219
REMARK   94  A    between atoms: _219  and  _220
REMARK   95  A    between atoms: _223  and  _225
REMARK   96  A    between atoms: _225  and  _226
REMARK   97  A    between atoms: _225  and  _228
REMARK   98  A    between atoms: _228  and  _229
REMARK   99  A    between atoms: _239  and  _241
REMARK  100  A    between atoms: _241  and  _242
REMARK  101  A    between atoms: _241  and  _244
REMARK  102  A    between atoms: _244  and  _245
REMARK  103  A    between atoms: _245  and  _246
REMARK  104  A    between atoms: _246  and  _247
REMARK  105  A    between atoms: _256  and  _258
REMARK  106  A    between atoms: _258  and  _259
REMARK  107  A    between atoms: _258  and  _261
REMARK  108  A    between atoms: _261  and  _262
REMARK  109  A    between atoms: _265  and  _267
REMARK  110  A    between atoms: _267  and  _268
REMARK  111  A    between atoms: _267  and  _270
REMARK  112  A    between atoms: _270  and  _271
REMARK  113  A    between atoms: _281  and  _283
REMARK  114  A    between atoms: _283  and  _284
REMARK  115  A    between atoms: _283  and  _286
REMARK  116  A    between atoms: _286  and  _287
REMARK  117  A    between atoms: _293  and  _295
REMARK  118  A    between atoms: _295  and  _296
REMARK  119  A    between atoms: _295  and  _298
REMARK  120  A    between atoms: _298  and  _299
REMARK  121  A    between atoms: _302  and  _304
REMARK  122  A    between atoms: _304  and  _305
REMARK  123  A    between atoms: _304  and  _307
REMARK  124  A    between atoms: _307  and  _308
REMARK  125  A    between atoms: _311  and  _313
REMARK  126  A    between atoms: _313  and  _314
REMARK  127  A    between atoms: _313  and  _316
REMARK  128  A    between atoms: _316  and  _317
REMARK  129  A    between atoms: _322  and  _323
REMARK  130  A    between atoms: _325  and  _327
REMARK  131  A    between atoms: _327  and  _328
REMARK  132  A    between atoms: _327  and  _330
REMARK  133  A    between atoms: _330  and  _331
REMARK  134  A    between atoms: _331  and  _332
REMARK  135  A    between atoms: _335  and  _337
REMARK  136  A    between atoms: _337  and  _338
REMARK  137  A    between atoms: _337  and  _340
REMARK  138  A    between atoms: _340  and  _341
REMARK  139  A    between atoms: _341  and  _342
REMARK  140  A    between atoms: _342  and  _343
REMARK  141  A    between atoms: _343  and  _344
REMARK  142  A    between atoms: _348  and  _350
REMARK  143  A    between atoms: _350  and  _351
REMARK  144  A    between atoms: _350  and  _353
REMARK  145  A    between atoms: _353  and  _354
REMARK  146  A    between atoms: _358  and  _359
REMARK  147  A    between atoms: _364  and  _366
REMARK  148  A    between atoms: _366  and  _367
REMARK  149  A    between atoms: _366  and  _369
REMARK  150  A    between atoms: _372  and  _374
REMARK  151  A    between atoms: _374  and  _375
REMARK  152  A    between atoms: _374  and  _377
REMARK  153  A    between atoms: _377  and  _378
REMARK  154  A    between atoms: _381  and  _383
REMARK  155  A    between atoms: _383  and  _384
REMARK  156  A    between atoms: _383  and  _386
REMARK  157  A    between atoms: _386  and  _387
REMARK  158  A    between atoms: _392  and  _393
REMARK  159  A    between atoms: _395  and  _397
REMARK  160  A    between atoms: _397  and  _398
REMARK  161  A    between atoms: _397  and  _400
REMARK  162  A    between atoms: _400  and  _401
REMARK  163  A    between atoms: _401  and  _402
REMARK  164  A    between atoms: _404  and  _406
REMARK  165  A    between atoms: _406  and  _407
REMARK  166  A    between atoms: _406  and  _409
REMARK  167  A    between atoms: _409  and  _410
REMARK  168  A    between atoms: _415  and  _416
REMARK  169  A    between atoms: _418  and  _420
REMARK  170  A    between atoms: _420  and  _421
REMARK  171  A    between atoms: _420  and  _423
REMARK  172  A    between atoms: _423  and  _424
REMARK  173  A    between atoms: _424  and  _425
REMARK  174  A    between atoms: _430  and  _432
REMARK  175  A    between atoms: _432  and  _433
REMARK  176  A    between atoms: _432  and  _435
REMARK  177  A    between atoms: _435  and  _436
REMARK  178  A    between atoms: _439  and  _441
REMARK  179  A    between atoms: _441  and  _442
REMARK  180  A    between atoms: _441  and  _444
REMARK  181  A    between atoms: _444  and  _445
REMARK  182  A    between atoms: _448  and  _450
REMARK  183  A    between atoms: _450  and  _451
REMARK  184  A    between atoms: _450  and  _453
REMARK  185  A    between atoms: _453  and  _454
REMARK  186  A    between atoms: _457  and  _459
REMARK  187  A    between atoms: _459  and  _460
REMARK  188  A    between atoms: _459  and  _462
REMARK  189  A    between atoms: _462  and  _463
REMARK  190  A    between atoms: _466  and  _468
REMARK  191  A    between atoms: _468  and  _469
REMARK  192  A    between atoms: _468  and  _471
REMARK  193  A    between atoms: _471  and  _472
REMARK  194  A    between atoms: _477  and  _478
REMARK  195  A    between atoms: _480  and  _482
REMARK  196  A    between atoms: _482  and  _483
REMARK  197  A    between atoms: _482  and  _485
REMARK  198  A    between atoms: _485  and  _486
REMARK  199  A    between atoms: _486  and  _487
REMARK  200  A    between atoms: _490  and  _492
REMARK  201  A    between atoms: _492  and  _493
REMARK  202  A    between atoms: _495  and  _497
REMARK  203  A    between atoms: _497  and  _498
REMARK  204  A    between atoms: _497  and  _500
REMARK  205  A    between atoms: _500  and  _501
REMARK  206  A    between atoms: _504  and  _506
REMARK  207  A    between atoms: _506  and  _507
REMARK  208  A    between atoms: _506  and  _509
REMARK  209  A    between atoms: _509  and  _510
REMARK  210  A    between atoms: _513  and  _515
REMARK  211  A    between atoms: _515  and  _516
REMARK  212  A    between atoms: _515  and  _518
REMARK  213  A    between atoms: _518  and  _519
REMARK  214  A    between atoms: _519  and  _520
REMARK  215  A    between atoms: _520  and  _521
REMARK  216  A    between atoms: _530  and  _532
REMARK  217  A    between atoms: _532  and  _533
REMARK  218  A    between atoms: _532  and  _535
REMARK  219  A    between atoms: _535  and  _536
REMARK  220  A    between atoms: _539  and  _541
REMARK  221  A    between atoms: _541  and  _542
REMARK  222  A    between atoms: _541  and  _544
REMARK  223  A    between atoms: _544  and  _545
REMARK  224  A    between atoms: _551  and  _553
REMARK  225  A    between atoms: _553  and  _554
REMARK  226  A    between atoms: _553  and  _556
REMARK  227  A    between atoms: _556  and  _557
REMARK  228  A    between atoms: _562  and  _564
REMARK  229  A    between atoms: _564  and  _565
REMARK  230  A    between atoms: _564  and  _567
REMARK  231  A    between atoms: _567  and  _568
REMARK  232  A    between atoms: _571  and  _573
REMARK  233  A    between atoms: _573  and  _574
REMARK  234  A    between atoms: _573  and  _576
REMARK  235  A    between atoms: _576  and  _577
REMARK  236  A    between atoms: _582  and  _583
REMARK                            x       y       z     vdW  Elec       q    Type
REMARK                         _______ _______ _______ _____ _____    ______ ____
ROOT
ATOM      1  O   HOH     1      14.477   9.133  -5.029  0.00  0.00    +0.000 OA
ENDROOT
TORSDOF 0
REMARK  Name = ../refined-set-2016/4h75/4h75_pocket.pdb
REMARK  236 active torsions:
REMARK  status: ('A' for Active; 'I' for Inactive)
REMARK    1  A    between atoms: _1  and  _3
REMARK    2  A    between atoms: _3  and  _4
REMARK    3  A    between atoms: _3  and  _6
REMARK    4  A    between atoms: _6  and  _7
REMARK    5  A    between atoms: _17  and  _19
REMARK    6  A    between atoms: _19  and  _20
REMARK    7  A    between atoms: _19  and  _22
REMARK    8  A    between atoms: _22  and  _23
REMARK    9  A    between atoms: _23  and  _24
REMARK   10  A    between atoms: _24  and  _25
REMARK   11  A    between atoms: _25  and  _26
REMARK   12  A    between atoms: _30  and  _32
REMARK   13  A    between atoms: _32  and  _33
REMARK   14  A    between atoms: _32  and  _35
REMARK   15  A    between atoms: _35  and  _36
REMARK   16  A    between atoms: _41  and  _42
REMARK   17  A    between atoms: _44  and  _46
REMARK   18  A    between atoms: _46  and  _47
REMARK   19  A    between atoms: _46  and  _49
REMARK   20  A    between atoms: _49  and  _50
REMARK   21  A    between atoms: _53  and  _55
REMARK   22  A    between atoms: _55  and  _56
REMARK   23  A    between atoms: _58  and  _60
REMARK   24  A    between atoms: _60  and  _61
REMARK   25  A    between atoms: _60  and  _63
REMARK   26  A    between atoms: _63  and  _64
REMARK   27  A    between atoms: _70  and  _72
REMARK   28  A    between atoms: _72  and  _73
REMARK   29  A    between atoms: _72  and  _75
REMARK   30  A    between atoms: _75  and  _76
REMARK   31  A    between atoms: _79  and  _81
REMARK   32  A    between atoms: _81  and  _82
REMARK   33  A    between atoms: _81  and  _84
REMARK   34  A    between atoms: _86  and  _88
REMARK   35  A    between atoms: _88  and  _89
REMARK   36  A    between atoms: _88  and  _91
REMARK   37  A    between atoms: _94  and  _96
REMARK   38  A    between atoms: _96  and  _97
REMARK   39  A    between atoms: _96  and  _99
REMARK   40  A    between atoms: _99  and  _100
REMARK   41  A    between atoms: _105  and  _106
REMARK   42  A    between atoms: _108  and  _110
REMARK   43  A    between atoms: _110  and  _111
REMARK   44  A    between atoms: _110  and  _113
REMARK   45  A    between atoms: _113  and  _114
REMARK   46  A    between atoms: _119  and  _121
REMARK   47  A    between atoms: _121  and  _122
REMARK   48  A    between atoms: _121  and  _124
REMARK   49  A    between atoms: _124  and  _125
REMARK   50  A    between atoms: _125  and  _126
REMARK   51  A    between atoms: _128  and  _130
REMARK   52  A    between atoms: _130  and  _131
REMARK   53  A    between atoms: _130  and  _133
REMARK   54  A    between atoms: _133  and  _134
REMARK   55  A    between atoms: _140  and  _142
REMARK   56  A    between atoms: _142  and  _143
REMARK   57  A    between atoms: _142  and  _145
REMARK   58  A    between atoms: _145  and  _146
REMARK   59  A    between atoms: _146  and  _147
REMARK   60  A    between atoms: _150  and  _152
REMARK   61  A    between atoms: _152  and  _153
REMARK   62  A    between atoms: _152  and  _155
REMARK   63  A    between atoms: _155  and  _156
REMARK   64  A    between atoms: _159  and  _161
REMARK   65  A    between atoms: _161  and  _162
REMARK   66  A    between atoms: _161  and  _164
REMARK   67  A    between atoms: _164  and  _165
REMARK   68  A    between atoms: _165  and  _166
REMARK   69  A    between atoms: _169  and  _171
REMARK   70  A    between atoms: _171  and  _172
REMARK   71  A    between atoms: _171  and  _174
REMARK   72  A    between atoms: _174  and  _175
REMARK   73  A    between atoms: _178  and  _180
REMARK   74  A    between atoms: _180  and  _181
REMARK   75  A    between atoms: _183  and  _185
REMARK   76  A    between atoms: _185  and  _186
REMARK   77  A    between atoms: _185  and  _188
REMARK   78  A    between atoms: _188  and  _189
REMARK   79  A    between atoms: _191  and  _193
REMARK   80  A    between atoms: _193  and  _194
REMARK   81  A    between atoms: _193  and  _196
REMARK   82  A    between atoms: _196  and  _197
REMARK   83  A    between atoms: _197  and  _198
REMARK   84  A    between atoms: _198  and  _199
REMARK   85  A    between atoms: _199  and  _200
REMARK   86  A    between atoms: _204  and  _206
REMARK   87  A    between atoms: _206  and  _207
REMARK   88  A    between atoms: _206  and  _209
REMARK   89  A    between atoms: _209  and  _210
REMARK   90  A    between atoms: _213  and  _215
REMARK   91  A    between atoms: _215  and  _216
REMARK   92  A    between atoms: _215  and  _218
REMARK   93  A    between atoms: _218  and  _219
REMARK   94  A    between atoms: _219  and  _220
REMARK   95  A    between atoms: _223  and  _225
REMARK   96  A    between atoms: _225  and  _226
REMARK   97  A    between atoms: _225  and  _228
REMARK   98  A    between atoms: _228  and  _229
REMARK   99  A    between atoms: _239  and  _241
REMARK  100  A    between atoms: _241  and  _242
REMARK  101  A    between atoms: _241  and  _244
REMARK  102  A    between atoms: _244  and  _245
REMARK  103  A    between atoms: _245  and  _246
REMARK  104  A    between atoms: _246  and  _247
REMARK  105  A    between atoms: _256  and  _258
REMARK  106  A    between atoms: _258  and  _259
REMARK  107  A    between atoms: _258  and  _261
REMARK  108  A    between atoms: _261  and  _262
REMARK  109  A    between atoms: _265  and  _267
REMARK  110  A    between atoms: _267  and  _268
REMARK  111  A    between atoms: _267  and  _270
REMARK  112  A    between atoms: _270  and  _271
REMARK  113  A    between atoms: _281  and  _283
REMARK  114  A    between atoms: _283  and  _284
REMARK  115  A    between atoms: _283  and  _286
REMARK  116  A    between atoms: _286  and  _287
REMARK  117  A    between atoms: _293  and  _295
REMARK  118  A    between atoms: _295  and  _296
REMARK  119  A    between atoms: _295  and  _298
REMARK  120  A    between atoms: _298  and  _299
REMARK  121  A    between atoms: _302  and  _304
REMARK  122  A    between atoms: _304  and  _305
REMARK  123  A    between atoms: _304  and  _307
REMARK  124  A    between atoms: _307  and  _308
REMARK  125  A    between atoms: _311  and  _313
REMARK  126  A    between atoms: _313  and  _314
REMARK  127  A    between atoms: _313  and  _316
REMARK  128  A    between atoms: _316  and  _317
REMARK  129  A    between atoms: _322  and  _323
REMARK  130  A    between atoms: _325  and  _327
REMARK  131  A    between atoms: _327  and  _328
REMARK  132  A    between atoms: _327  and  _330
REMARK  133  A    between atoms: _330  and  _331
REMARK  134  A    between atoms: _331  and  _332
REMARK  135  A    between atoms: _335  and  _337
REMARK  136  A    between atoms: _337  and  _338
REMARK  137  A    between atoms: _337  and  _340
REMARK  138  A    between atoms: _340  and  _341
REMARK  139  A    between atoms: _341  and  _342
REMARK  140  A    between atoms: _342  and  _343
REMARK  141  A    between atoms: _343  and  _344
REMARK  142  A    between atoms: _348  and  _350
REMARK  143  A    between atoms: _350  and  _351
REMARK  144  A    between atoms: _350  and  _353
REMARK  145  A    between atoms: _353  and  _354
REMARK  146  A    between atoms: _358  and  _359
REMARK  147  A    between atoms: _364  and  _366
REMARK  148  A    between atoms: _366  and  _367
REMARK  149  A    between atoms: _366  and  _369
REMARK  150  A    between atoms: _372  and  _374
REMARK  151  A    between atoms: _374  and  _375
REMARK  152  A    between atoms: _374  and  _377
REMARK  153  A    between atoms: _377  and  _378
REMARK  154  A    between atoms: _381  and  _383
REMARK  155  A    between atoms: _383  and  _384
REMARK  156  A    between atoms: _383  and  _386
REMARK  157  A    between atoms: _386  and  _387
REMARK  158  A    between atoms: _392  and  _393
REMARK  159  A    between atoms: _395  and  _397
REMARK  160  A    between atoms: _397  and  _398
REMARK  161  A    between atoms: _397  and  _400
REMARK  162  A    between atoms: _400  and  _401
REMARK  163  A    between atoms: _401  and  _402
REMARK  164  A    between atoms: _404  and  _406
REMARK  165  A    between atoms: _406  and  _407
REMARK  166  A    between atoms: _406  and  _409
REMARK  167  A    between atoms: _409  and  _410
REMARK  168  A    between atoms: _415  and  _416
REMARK  169  A    between atoms: _418  and  _420
REMARK  170  A    between atoms: _420  and  _421
REMARK  171  A    between atoms: _420  and  _423
REMARK  172  A    between atoms: _423  and  _424
REMARK  173  A    between atoms: _424  and  _425
REMARK  174  A    between atoms: _430  and  _432
REMARK  175  A    between atoms: _432  and  _433
REMARK  176  A    between atoms: _432  and  _435
REMARK  177  A    between atoms: _435  and  _436
REMARK  178  A    between atoms: _439  and  _441
REMARK  179  A    between atoms: _441  and  _442
REMARK  180  A    between atoms: _441  and  _444
REMARK  181  A    between atoms: _444  and  _445
REMARK  182  A    between atoms: _448  and  _450
REMARK  183  A    between atoms: _450  and  _451
REMARK  184  A    between atoms: _450  and  _453
REMARK  185  A    between atoms: _453  and  _454
REMARK  186  A    between atoms: _457  and  _459
REMARK  187  A    between atoms: _459  and  _460
REMARK  188  A    between atoms: _459  and  _462
REMARK  189  A    between atoms: _462  and  _463
REMARK  190  A    between atoms: _466  and  _468
REMARK  191  A    between atoms: _468  and  _469
REMARK  192  A    between atoms: _468  and  _471
REMARK  193  A    between atoms: _471  and  _472
REMARK  194  A    between atoms: _477  and  _478
REMARK  195  A    between atoms: _480  and  _482
REMARK  196  A    between atoms: _482  and  _483
REMARK  197  A    between atoms: _482  and  _485
REMARK  198  A    between atoms: _485  and  _486
REMARK  199  A    between atoms: _486  and  _487
REMARK  200  A    between atoms: _490  and  _492
REMARK  201  A    between atoms: _492  and  _493
REMARK  202  A    between atoms: _495  and  _497
REMARK  203  A    between atoms: _497  and  _498
REMARK  204  A    between atoms: _497  and  _500
REMARK  205  A    between atoms: _500  and  _501
REMARK  206  A    between atoms: _504  and  _506
REMARK  207  A    between atoms: _506  and  _507
REMARK  208  A    between atoms: _506  and  _509
REMARK  209  A    between atoms: _509  and  _510
REMARK  210  A    between atoms: _513  and  _515
REMARK  211  A    between atoms: _515  and  _516
REMARK  212  A    between atoms: _515  and  _518
REMARK  213  A    between atoms: _518  and  _519
REMARK  214  A    between atoms: _519  and  _520
REMARK  215  A    between atoms: _520  and  _521
REMARK  216  A    between atoms: _530  and  _532
REMARK  217  A    between atoms: _532  and  _533
REMARK  218  A    between atoms: _532  and  _535
REMARK  219  A    between atoms: _535  and  _536
REMARK  220  A    between atoms: _539  and  _541
REMARK  221  A    between atoms: _541  and  _542
REMARK  222  A    between atoms: _541  and  _544
REMARK  223  A    between atoms: _544  and  _545
REMARK  224  A    between atoms: _551  and  _553
REMARK  225  A    between atoms: _553  and  _554
REMARK  226  A    between atoms: _553  and  _556
REMARK  227  A    between atoms: _556  and  _557
REMARK  228  A    between atoms: _562  and  _564
REMARK  229  A    between atoms: _564  and  _565
REMARK  230  A    between atoms: _564  and  _567
REMARK  231  A    between atoms: _567  and  _568
REMARK  232  A    between atoms: _571  and  _573
REMARK  233  A    between atoms: _573  and  _574
REMARK  234  A    between atoms: _573  and  _576
REMARK  235  A    between atoms: _576  and  _577
REMARK  236  A    between atoms: _582  and  _583
REMARK                            x       y       z     vdW  Elec       q    Type
REMARK                         _______ _______ _______ _____ _____    ______ ____
ROOT
ATOM      1  O   HOH     1      17.145  12.379   0.200  0.00  0.00    +0.000 OA
ENDROOT
TORSDOF 0
REMARK  Name = ../refined-set-2016/4h75/4h75_pocket.pdb
REMARK  236 active torsions:
REMARK  status: ('A' for Active; 'I' for Inactive)
REMARK    1  A    between atoms: _1  and  _3
REMARK    2  A    between atoms: _3  and  _4
REMARK    3  A    between atoms: _3  and  _6
REMARK    4  A    between atoms: _6  and  _7
REMARK    5  A    between atoms: _17  and  _19
REMARK    6  A    between atoms: _19  and  _20
REMARK    7  A    between atoms: _19  and  _22
REMARK    8  A    between atoms: _22  and  _23
REMARK    9  A    between atoms: _23  and  _24
REMARK   10  A    between atoms: _24  and  _25
REMARK   11  A    between atoms: _25  and  _26
REMARK   12  A    between atoms: _30  and  _32
REMARK   13  A    between atoms: _32  and  _33
REMARK   14  A    between atoms: _32  and  _35
REMARK   15  A    between atoms: _35  and  _36
REMARK   16  A    between atoms: _41  and  _42
REMARK   17  A    between atoms: _44  and  _46
REMARK   18  A    between atoms: _46  and  _47
REMARK   19  A    between atoms: _46  and  _49
REMARK   20  A    between atoms: _49  and  _50
REMARK   21  A    between atoms: _53  and  _55
REMARK   22  A    between atoms: _55  and  _56
REMARK   23  A    between atoms: _58  and  _60
REMARK   24  A    between atoms: _60  and  _61
REMARK   25  A    between atoms: _60  and  _63
REMARK   26  A    between atoms: _63  and  _64
REMARK   27  A    between atoms: _70  and  _72
REMARK   28  A    between atoms: _72  and  _73
REMARK   29  A    between atoms: _72  and  _75
REMARK   30  A    between atoms: _75  and  _76
REMARK   31  A    between atoms: _79  and  _81
REMARK   32  A    between atoms: _81  and  _82
REMARK   33  A    between atoms: _81  and  _84
REMARK   34  A    between atoms: _86  and  _88
REMARK   35  A    between atoms: _88  and  _89
REMARK   36  A    between atoms: _88  and  _91
REMARK   37  A    between atoms: _94  and  _96
REMARK   38  A    between atoms: _96  and  _97
REMARK   39  A    between atoms: _96  and  _99
REMARK   40  A    between atoms: _99  and  _100
REMARK   41  A    between atoms: _105  and  _106
REMARK   42  A    between atoms: _108  and  _110
REMARK   43  A    between atoms: _110  and  _111
REMARK   44  A    between atoms: _110  and  _113
REMARK   45  A    between atoms: _113  and  _114
REMARK   46  A    between atoms: _119  and  _121
REMARK   47  A    between atoms: _121  and  _122
REMARK   48  A    between atoms: _121  and  _124
REMARK   49  A    between atoms: _124  and  _125
REMARK   50  A    between atoms: _125  and  _126
REMARK   51  A    between atoms: _128  and  _130
REMARK   52  A    between atoms: _130  and  _131
REMARK   53  A    between atoms: _130  and  _133
REMARK   54  A    between atoms: _133  and  _134
REMARK   55  A    between atoms: _140  and  _142
REMARK   56  A    between atoms: _142  and  _143
REMARK   57  A    between atoms: _142  and  _145
REMARK   58  A    between atoms: _145  and  _146
REMARK   59  A    between atoms: _146  and  _147
REMARK   60  A    between atoms: _150  and  _152
REMARK   61  A    between atoms: _152  and  _153
REMARK   62  A    between atoms: _152  and  _155
REMARK   63  A    between atoms: _155  and  _156
REMARK   64  A    between atoms: _159  and  _161
REMARK   65  A    between atoms: _161  and  _162
REMARK   66  A    between atoms: _161  and  _164
REMARK   67  A    between atoms: _164  and  _165
REMARK   68  A    between atoms: _165  and  _166
REMARK   69  A    between atoms: _169  and  _171
REMARK   70  A    between atoms: _171  and  _172
REMARK   71  A    between atoms: _171  and  _174
REMARK   72  A    between atoms: _174  and  _175
REMARK   73  A    between atoms: _178  and  _180
REMARK   74  A    between atoms: _180  and  _181
REMARK   75  A    between atoms: _183  and  _185
REMARK   76  A    between atoms: _185  and  _186
REMARK   77  A    between atoms: _185  and  _188
REMARK   78  A    between atoms: _188  and  _189
REMARK   79  A    between atoms: _191  and  _193
REMARK   80  A    between atoms: _193  and  _194
REMARK   81  A    between atoms: _193  and  _196
REMARK   82  A    between atoms: _196  and  _197
REMARK   83  A    between atoms: _197  and  _198
REMARK   84  A    between atoms: _198  and  _199
REMARK   85  A    between atoms: _199  and  _200
REMARK   86  A    between atoms: _204  and  _206
REMARK   87  A    between atoms: _206  and  _207
REMARK   88  A    between atoms: _206  and  _209
REMARK   89  A    between atoms: _209  and  _210
REMARK   90  A    between atoms: _213  and  _215
REMARK   91  A    between atoms: _215  and  _216
REMARK   92  A    between atoms: _215  and  _218
REMARK   93  A    between atoms: _218  and  _219
REMARK   94  A    between atoms: _219  and  _220
REMARK   95  A    between atoms: _223  and  _225
REMARK   96  A    between atoms: _225  and  _226
REMARK   97  A    between atoms: _225  and  _228
REMARK   98  A    between atoms: _228  and  _229
REMARK   99  A    between atoms: _239  and  _241
REMARK  100  A    between atoms: _241  and  _242
REMARK  101  A    between atoms: _241  and  _244
REMARK  102  A    between atoms: _244  and  _245
REMARK  103  A    between atoms: _245  and  _246
REMARK  104  A    between atoms: _246  and  _247
REMARK  105  A    between atoms: _256  and  _258
REMARK  106  A    between atoms: _258  and  _259
REMARK  107  A    between atoms: _258  and  _261
REMARK  108  A    between atoms: _261  and  _262
REMARK  109  A    between atoms: _265  and  _267
REMARK  110  A    between atoms: _267  and  _268
REMARK  111  A    between atoms: _267  and  _270
REMARK  112  A    between atoms: _270  and  _271
REMARK  113  A    between atoms: _281  and  _283
REMARK  114  A    between atoms: _283  and  _284
REMARK  115  A    between atoms: _283  and  _286
REMARK  116  A    between atoms: _286  and  _287
REMARK  117  A    between atoms: _293  and  _295
REMARK  118  A    between atoms: _295  and  _296
REMARK  119  A    between atoms: _295  and  _298
REMARK  120  A    between atoms: _298  and  _299
REMARK  121  A    between atoms: _302  and  _304
REMARK  122  A    between atoms: _304  and  _305
REMARK  123  A    between atoms: _304  and  _307
REMARK  124  A    between atoms: _307  and  _308
REMARK  125  A    between atoms: _311  and  _313
REMARK  126  A    between atoms: _313  and  _314
REMARK  127  A    between atoms: _313  and  _316
REMARK  128  A    between atoms: _316  and  _317
REMARK  129  A    between atoms: _322  and  _323
REMARK  130  A    between atoms: _325  and  _327
REMARK  131  A    between atoms: _327  and  _328
REMARK  132  A    between atoms: _327  and  _330
REMARK  133  A    between atoms: _330  and  _331
REMARK  134  A    between atoms: _331  and  _332
REMARK  135  A    between atoms: _335  and  _337
REMARK  136  A    between atoms: _337  and  _338
REMARK  137  A    between atoms: _337  and  _340
REMARK  138  A    between atoms: _340  and  _341
REMARK  139  A    between atoms: _341  and  _342
REMARK  140  A    between atoms: _342  and  _343
REMARK  141  A    between atoms: _343  and  _344
REMARK  142  A    between atoms: _348  and  _350
REMARK  143  A    between atoms: _350  and  _351
REMARK  144  A    between atoms: _350  and  _353
REMARK  145  A    between atoms: _353  and  _354
REMARK  146  A    between atoms: _358  and  _359
REMARK  147  A    between atoms: _364  and  _366
REMARK  148  A    between atoms: _366  and  _367
REMARK  149  A    between atoms: _366  and  _369
REMARK  150  A    between atoms: _372  and  _374
REMARK  151  A    between atoms: _374  and  _375
REMARK  152  A    between atoms: _374  and  _377
REMARK  153  A    between atoms: _377  and  _378
REMARK  154  A    between atoms: _381  and  _383
REMARK  155  A    between atoms: _383  and  _384
REMARK  156  A    between atoms: _383  and  _386
REMARK  157  A    between atoms: _386  and  _387
REMARK  158  A    between atoms: _392  and  _393
REMARK  159  A    between atoms: _395  and  _397
REMARK  160  A    between atoms: _397  and  _398
REMARK  161  A    between atoms: _397  and  _400
REMARK  162  A    between atoms: _400  and  _401
REMARK  163  A    between atoms: _401  and  _402
REMARK  164  A    between atoms: _404  and  _406
REMARK  165  A    between atoms: _406  and  _407
REMARK  166  A    between atoms: _406  and  _409
REMARK  167  A    between atoms: _409  and  _410
REMARK  168  A    between atoms: _415  and  _416
REMARK  169  A    between atoms: _418  and  _420
REMARK  170  A    between atoms: _420  and  _421
REMARK  171  A    between atoms: _420  and  _423
REMARK  172  A    between atoms: _423  and  _424
REMARK  173  A    between atoms: _424  and  _425
REMARK  174  A    between atoms: _430  and  _432
REMARK  175  A    between atoms: _432  and  _433
REMARK  176  A    between atoms: _432  and  _435
REMARK  177  A    between atoms: _435  and  _436
REMARK  178  A    between atoms: _439  and  _441
REMARK  179  A    between atoms: _441  and  _442
REMARK  180  A    between atoms: _441  and  _444
REMARK  181  A    between atoms: _444  and  _445
REMARK  182  A    between atoms: _448  and  _450
REMARK  183  A    between atoms: _450  and  _451
REMARK  184  A    between atoms: _450  and  _453
REMARK  185  A    between atoms: _453  and  _454
REMARK  186  A    between atoms: _457  and  _459
REMARK  187  A    between atoms: _459  and  _460
REMARK  188  A    between atoms: _459  and  _462
REMARK  189  A    between atoms: _462  and  _463
REMARK  190  A    between atoms: _466  and  _468
REMARK  191  A    between atoms: _468  and  _469
REMARK  192  A    between atoms: _468  and  _471
REMARK  193  A    between atoms: _471  and  _472
REMARK  194  A    between atoms: _477  and  _478
REMARK  195  A    between atoms: _480  and  _482
REMARK  196  A    between atoms: _482  and  _483
REMARK  197  A    between atoms: _482  and  _485
REMARK  198  A    between atoms: _485  and  _486
REMARK  199  A    between atoms: _486  and  _487
REMARK  200  A    between atoms: _490  and  _492
REMARK  201  A    between atoms: _492  and  _493
REMARK  202  A    between atoms: _495  and  _497
REMARK  203  A    between atoms: _497  and  _498
REMARK  204  A    between atoms: _497  and  _500
REMARK  205  A    between atoms: _500  and  _501
REMARK  206  A    between atoms: _504  and  _506
REMARK  207  A    between atoms: _506  and  _507
REMARK  208  A    between atoms: _506  and  _509
REMARK  209  A    between atoms: _509  and  _510
REMARK  210  A    between atoms: _513  and  _515
REMARK  211  A    between atoms: _515  and  _516
REMARK  212  A    between atoms: _515  and  _518
REMARK  213  A    between atoms: _518  and  _519
REMARK  214  A    between atoms: _519  and  _520
REMARK  215  A    between atoms: _520  and  _521
REMARK  216  A    between atoms: _530  and  _532
REMARK  217  A    between atoms: _532  and  _533
REMARK  218  A    between atoms: _532  and  _535
REMARK  219  A    between atoms: _535  and  _536
REMARK  220  A    between atoms: _539  and  _541
REMARK  221  A    between atoms: _541  and  _542
REMARK  222  A    between atoms: _541  and  _544
REMARK  223  A    between atoms: _544  and  _545
REMARK  224  A    between atoms: _551  and  _553
REMARK  225  A    between atoms: _553  and  _554
REMARK  226  A    between atoms: _553  and  _556
REMARK  227  A    between atoms: _556  and  _557
REMARK  228  A    between atoms: _562  and  _564
REMARK  229  A    between atoms: _564  and  _565
REMARK  230  A    between atoms: _564  and  _567
REMARK  231  A    between atoms: _567  and  _568
REMARK  232  A    between atoms: _571  and  _573
REMARK  233  A    between atoms: _573  and  _574
REMARK  234  A    between atoms: _573  and  _576
REMARK  235  A    between atoms: _576  and  _577
REMARK  236  A    between atoms: _582  and  _583
REMARK                            x       y       z     vdW  Elec       q    Type
REMARK                         _______ _______ _______ _____ _____    ______ ____
ROOT
ATOM      1  O   HOH     1      15.651  10.491  -1.501  0.00  0.00    +0.000 OA
ENDROOT
TORSDOF 0
REMARK  Name = ../refined-set-2016/4h75/4h75_pocket.pdb
REMARK  236 active torsions:
REMARK  status: ('A' for Active; 'I' for Inactive)
REMARK    1  A    between atoms: _1  and  _3
REMARK    2  A    between atoms: _3  and  _4
REMARK    3  A    between atoms: _3  and  _6
REMARK    4  A    between atoms: _6  and  _7
REMARK    5  A    between atoms: _17  and  _19
REMARK    6  A    between atoms: _19  and  _20
REMARK    7  A    between atoms: _19  and  _22
REMARK    8  A    between atoms: _22  and  _23
REMARK    9  A    between atoms: _23  and  _24
REMARK   10  A    between atoms: _24  and  _25
REMARK   11  A    between atoms: _25  and  _26
REMARK   12  A    between atoms: _30  and  _32
REMARK   13  A    between atoms: _32  and  _33
REMARK   14  A    between atoms: _32  and  _35
REMARK   15  A    between atoms: _35  and  _36
REMARK   16  A    between atoms: _41  and  _42
REMARK   17  A    between atoms: _44  and  _46
REMARK   18  A    between atoms: _46  and  _47
REMARK   19  A    between atoms: _46  and  _49
REMARK   20  A    between atoms: _49  and  _50
REMARK   21  A    between atoms: _53  and  _55
REMARK   22  A    between atoms: _55  and  _56
REMARK   23  A    between atoms: _58  and  _60
REMARK   24  A    between atoms: _60  and  _61
REMARK   25  A    between atoms: _60  and  _63
REMARK   26  A    between atoms: _63  and  _64
REMARK   27  A    between atoms: _70  and  _72
REMARK   28  A    between atoms: _72  and  _73
REMARK   29  A    between atoms: _72  and  _75
REMARK   30  A    between atoms: _75  and  _76
REMARK   31  A    between atoms: _79  and  _81
REMARK   32  A    between atoms: _81  and  _82
REMARK   33  A    between atoms: _81  and  _84
REMARK   34  A    between atoms: _86  and  _88
REMARK   35  A    between atoms: _88  and  _89
REMARK   36  A    between atoms: _88  and  _91
REMARK   37  A    between atoms: _94  and  _96
REMARK   38  A    between atoms: _96  and  _97
REMARK   39  A    between atoms: _96  and  _99
REMARK   40  A    between atoms: _99  and  _100
REMARK   41  A    between atoms: _105  and  _106
REMARK   42  A    between atoms: _108  and  _110
REMARK   43  A    between atoms: _110  and  _111
REMARK   44  A    between atoms: _110  and  _113
REMARK   45  A    between atoms: _113  and  _114
REMARK   46  A    between atoms: _119  and  _121
REMARK   47  A    between atoms: _121  and  _122
REMARK   48  A    between atoms: _121  and  _124
REMARK   49  A    between atoms: _124  and  _125
REMARK   50  A    between atoms: _125  and  _126
REMARK   51  A    between atoms: _128  and  _130
REMARK   52  A    between atoms: _130  and  _131
REMARK   53  A    between atoms: _130  and  _133
REMARK   54  A    between atoms: _133  and  _134
REMARK   55  A    between atoms: _140  and  _142
REMARK   56  A    between atoms: _142  and  _143
REMARK   57  A    between atoms: _142  and  _145
REMARK   58  A    between atoms: _145  and  _146
REMARK   59  A    between atoms: _146  and  _147
REMARK   60  A    between atoms: _150  and  _152
REMARK   61  A    between atoms: _152  and  _153
REMARK   62  A    between atoms: _152  and  _155
REMARK   63  A    between atoms: _155  and  _156
REMARK   64  A    between atoms: _159  and  _161
REMARK   65  A    between atoms: _161  and  _162
REMARK   66  A    between atoms: _161  and  _164
REMARK   67  A    between atoms: _164  and  _165
REMARK   68  A    between atoms: _165  and  _166
REMARK   69  A    between atoms: _169  and  _171
REMARK   70  A    between atoms: _171  and  _172
REMARK   71  A    between atoms: _171  and  _174
REMARK   72  A    between atoms: _174  and  _175
REMARK   73  A    between atoms: _178  and  _180
REMARK   74  A    between atoms: _180  and  _181
REMARK   75  A    between atoms: _183  and  _185
REMARK   76  A    between atoms: _185  and  _186
REMARK   77  A    between atoms: _185  and  _188
REMARK   78  A    between atoms: _188  and  _189
REMARK   79  A    between atoms: _191  and  _193
REMARK   80  A    between atoms: _193  and  _194
REMARK   81  A    between atoms: _193  and  _196
REMARK   82  A    between atoms: _196  and  _197
REMARK   83  A    between atoms: _197  and  _198
REMARK   84  A    between atoms: _198  and  _199
REMARK   85  A    between atoms: _199  and  _200
REMARK   86  A    between atoms: _204  and  _206
REMARK   87  A    between atoms: _206  and  _207
REMARK   88  A    between atoms: _206  and  _209
REMARK   89  A    between atoms: _209  and  _210
REMARK   90  A    between atoms: _213  and  _215
REMARK   91  A    between atoms: _215  and  _216
REMARK   92  A    between atoms: _215  and  _218
REMARK   93  A    between atoms: _218  and  _219
REMARK   94  A    between atoms: _219  and  _220
REMARK   95  A    between atoms: _223  and  _225
REMARK   96  A    between atoms: _225  and  _226
REMARK   97  A    between atoms: _225  and  _228
REMARK   98  A    between atoms: _228  and  _229
REMARK   99  A    between atoms: _239  and  _241
REMARK  100  A    between atoms: _241  and  _242
REMARK  101  A    between atoms: _241  and  _244
REMARK  102  A    between atoms: _244  and  _245
REMARK  103  A    between atoms: _245  and  _246
REMARK  104  A    between atoms: _246  and  _247
REMARK  105  A    between atoms: _256  and  _258
REMARK  106  A    between atoms: _258  and  _259
REMARK  107  A    between atoms: _258  and  _261
REMARK  108  A    between atoms: _261  and  _262
REMARK  109  A    between atoms: _265  and  _267
REMARK  110  A    between atoms: _267  and  _268
REMARK  111  A    between atoms: _267  and  _270
REMARK  112  A    between atoms: _270  and  _271
REMARK  113  A    between atoms: _281  and  _283
REMARK  114  A    between atoms: _283  and  _284
REMARK  115  A    between atoms: _283  and  _286
REMARK  116  A    between atoms: _286  and  _287
REMARK  117  A    between atoms: _293  and  _295
REMARK  118  A    between atoms: _295  and  _296
REMARK  119  A    between atoms: _295  and  _298
REMARK  120  A    between atoms: _298  and  _299
REMARK  121  A    between atoms: _302  and  _304
REMARK  122  A    between atoms: _304  and  _305
REMARK  123  A    between atoms: _304  and  _307
REMARK  124  A    between atoms: _307  and  _308
REMARK  125  A    between atoms: _311  and  _313
REMARK  126  A    between atoms: _313  and  _314
REMARK  127  A    between atoms: _313  and  _316
REMARK  128  A    between atoms: _316  and  _317
REMARK  129  A    between atoms: _322  and  _323
REMARK  130  A    between atoms: _325  and  _327
REMARK  131  A    between atoms: _327  and  _328
REMARK  132  A    between atoms: _327  and  _330
REMARK  133  A    between atoms: _330  and  _331
REMARK  134  A    between atoms: _331  and  _332
REMARK  135  A    between atoms: _335  and  _337
REMARK  136  A    between atoms: _337  and  _338
REMARK  137  A    between atoms: _337  and  _340
REMARK  138  A    between atoms: _340  and  _341
REMARK  139  A    between atoms: _341  and  _342
REMARK  140  A    between atoms: _342  and  _343
REMARK  141  A    between atoms: _343  and  _344
REMARK  142  A    between atoms: _348  and  _350
REMARK  143  A    between atoms: _350  and  _351
REMARK  144  A    between atoms: _350  and  _353
REMARK  145  A    between atoms: _353  and  _354
REMARK  146  A    between atoms: _358  and  _359
REMARK  147  A    between atoms: _364  and  _366
REMARK  148  A    between atoms: _366  and  _367
REMARK  149  A    between atoms: _366  and  _369
REMARK  150  A    between atoms: _372  and  _374
REMARK  151  A    between atoms: _374  and  _375
REMARK  152  A    between atoms: _374  and  _377
REMARK  153  A    between atoms: _377  and  _378
REMARK  154  A    between atoms: _381  and  _383
REMARK  155  A    between atoms: _383  and  _384
REMARK  156  A    between atoms: _383  and  _386
REMARK  157  A    between atoms: _386  and  _387
REMARK  158  A    between atoms: _392  and  _393
REMARK  159  A    between atoms: _395  and  _397
REMARK  160  A    between atoms: _397  and  _398
REMARK  161  A    between atoms: _397  and  _400
REMARK  162  A    between atoms: _400  and  _401
REMARK  163  A    between atoms: _401  and  _402
REMARK  164  A    between atoms: _404  and  _406
REMARK  165  A    between atoms: _406  and  _407
REMARK  166  A    between atoms: _406  and  _409
REMARK  167  A    between atoms: _409  and  _410
REMARK  168  A    between atoms: _415  and  _416
REMARK  169  A    between atoms: _418  and  _420
REMARK  170  A    between atoms: _420  and  _421
REMARK  171  A    between atoms: _420  and  _423
REMARK  172  A    between atoms: _423  and  _424
REMARK  173  A    between atoms: _424  and  _425
REMARK  174  A    between atoms: _430  and  _432
REMARK  175  A    between atoms: _432  and  _433
REMARK  176  A    between atoms: _432  and  _435
REMARK  177  A    between atoms: _435  and  _436
REMARK  178  A    between atoms: _439  and  _441
REMARK  179  A    between atoms: _441  and  _442
REMARK  180  A    between atoms: _441  and  _444
REMARK  181  A    between atoms: _444  and  _445
REMARK  182  A    between atoms: _448  and  _450
REMARK  183  A    between atoms: _450  and  _451
REMARK  184  A    between atoms: _450  and  _453
REMARK  185  A    between atoms: _453  and  _454
REMARK  186  A    between atoms: _457  and  _459
REMARK  187  A    between atoms: _459  and  _460
REMARK  188  A    between atoms: _459  and  _462
REMARK  189  A    between atoms: _462  and  _463
REMARK  190  A    between atoms: _466  and  _468
REMARK  191  A    between atoms: _468  and  _469
REMARK  192  A    between atoms: _468  and  _471
REMARK  193  A    between atoms: _471  and  _472
REMARK  194  A    between atoms: _477  and  _478
REMARK  195  A    between atoms: _480  and  _482
REMARK  196  A    between atoms: _482  and  _483
REMARK  197  A    between atoms: _482  and  _485
REMARK  198  A    between atoms: _485  and  _486
REMARK  199  A    between atoms: _486  and  _487
REMARK  200  A    between atoms: _490  and  _492
REMARK  201  A    between atoms: _492  and  _493
REMARK  202  A    between atoms: _495  and  _497
REMARK  203  A    between atoms: _497  and  _498
REMARK  204  A    between atoms: _497  and  _500
REMARK  205  A    between atoms: _500  and  _501
REMARK  206  A    between atoms: _504  and  _506
REMARK  207  A    between atoms: _506  and  _507
REMARK  208  A    between atoms: _506  and  _509
REMARK  209  A    between atoms: _509  and  _510
REMARK  210  A    between atoms: _513  and  _515
REMARK  211  A    between atoms: _515  and  _516
REMARK  212  A    between atoms: _515  and  _518
REMARK  213  A    between atoms: _518  and  _519
REMARK  214  A    between atoms: _519  and  _520
REMARK  215  A    between atoms: _520  and  _521
REMARK  216  A    between atoms: _530  and  _532
REMARK  217  A    between atoms: _532  and  _533
REMARK  218  A    between atoms: _532  and  _535
REMARK  219  A    between atoms: _535  and  _536
REMARK  220  A    between atoms: _539  and  _541
REMARK  221  A    between atoms: _541  and  _542
REMARK  222  A    between atoms: _541  and  _544
REMARK  223  A    between atoms: _544  and  _545
REMARK  224  A    between atoms: _551  and  _553
REMARK  225  A    between atoms: _553  and  _554
REMARK  226  A    between atoms: _553  and  _556
REMARK  227  A    between atoms: _556  and  _557
REMARK  228  A    between atoms: _562  and  _564
REMARK  229  A    between atoms: _564  and  _565
REMARK  230  A    between atoms: _564  and  _567
REMARK  231  A    between atoms: _567  and  _568
REMARK  232  A    between atoms: _571  and  _573
REMARK  233  A    between atoms: _573  and  _574
REMARK  234  A    between atoms: _573  and  _576
REMARK  235  A    between atoms: _576  and  _577
REMARK  236  A    between atoms: _582  and  _583
REMARK                            x       y       z     vdW  Elec       q    Type
REMARK                         _______ _______ _______ _____ _____    ______ ____
ROOT
ATOM      1  O   HOH     1      18.626   0.364  -3.752  0.00  0.00    +0.000 OA
ENDROOT
TORSDOF 0
REMARK  Name = ../refined-set-2016/4h75/4h75_pocket.pdb
REMARK  236 active torsions:
REMARK  status: ('A' for Active; 'I' for Inactive)
REMARK    1  A    between atoms: _1  and  _3
REMARK    2  A    between atoms: _3  and  _4
REMARK    3  A    between atoms: _3  and  _6
REMARK    4  A    between atoms: _6  and  _7
REMARK    5  A    between atoms: _17  and  _19
REMARK    6  A    between atoms: _19  and  _20
REMARK    7  A    between atoms: _19  and  _22
REMARK    8  A    between atoms: _22  and  _23
REMARK    9  A    between atoms: _23  and  _24
REMARK   10  A    between atoms: _24  and  _25
REMARK   11  A    between atoms: _25  and  _26
REMARK   12  A    between atoms: _30  and  _32
REMARK   13  A    between atoms: _32  and  _33
REMARK   14  A    between atoms: _32  and  _35
REMARK   15  A    between atoms: _35  and  _36
REMARK   16  A    between atoms: _41  and  _42
REMARK   17  A    between atoms: _44  and  _46
REMARK   18  A    between atoms: _46  and  _47
REMARK   19  A    between atoms: _46  and  _49
REMARK   20  A    between atoms: _49  and  _50
REMARK   21  A    between atoms: _53  and  _55
REMARK   22  A    between atoms: _55  and  _56
REMARK   23  A    between atoms: _58  and  _60
REMARK   24  A    between atoms: _60  and  _61
REMARK   25  A    between atoms: _60  and  _63
REMARK   26  A    between atoms: _63  and  _64
REMARK   27  A    between atoms: _70  and  _72
REMARK   28  A    between atoms: _72  and  _73
REMARK   29  A    between atoms: _72  and  _75
REMARK   30  A    between atoms: _75  and  _76
REMARK   31  A    between atoms: _79  and  _81
REMARK   32  A    between atoms: _81  and  _82
REMARK   33  A    between atoms: _81  and  _84
REMARK   34  A    between atoms: _86  and  _88
REMARK   35  A    between atoms: _88  and  _89
REMARK   36  A    between atoms: _88  and  _91
REMARK   37  A    between atoms: _94  and  _96
REMARK   38  A    between atoms: _96  and  _97
REMARK   39  A    between atoms: _96  and  _99
REMARK   40  A    between atoms: _99  and  _100
REMARK   41  A    between atoms: _105  and  _106
REMARK   42  A    between atoms: _108  and  _110
REMARK   43  A    between atoms: _110  and  _111
REMARK   44  A    between atoms: _110  and  _113
REMARK   45  A    between atoms: _113  and  _114
REMARK   46  A    between atoms: _119  and  _121
REMARK   47  A    between atoms: _121  and  _122
REMARK   48  A    between atoms: _121  and  _124
REMARK   49  A    between atoms: _124  and  _125
REMARK   50  A    between atoms: _125  and  _126
REMARK   51  A    between atoms: _128  and  _130
REMARK   52  A    between atoms: _130  and  _131
REMARK   53  A    between atoms: _130  and  _133
REMARK   54  A    between atoms: _133  and  _134
REMARK   55  A    between atoms: _140  and  _142
REMARK   56  A    between atoms: _142  and  _143
REMARK   57  A    between atoms: _142  and  _145
REMARK   58  A    between atoms: _145  and  _146
REMARK   59  A    between atoms: _146  and  _147
REMARK   60  A    between atoms: _150  and  _152
REMARK   61  A    between atoms: _152  and  _153
REMARK   62  A    between atoms: _152  and  _155
REMARK   63  A    between atoms: _155  and  _156
REMARK   64  A    between atoms: _159  and  _161
REMARK   65  A    between atoms: _161  and  _162
REMARK   66  A    between atoms: _161  and  _164
REMARK   67  A    between atoms: _164  and  _165
REMARK   68  A    between atoms: _165  and  _166
REMARK   69  A    between atoms: _169  and  _171
REMARK   70  A    between atoms: _171  and  _172
REMARK   71  A    between atoms: _171  and  _174
REMARK   72  A    between atoms: _174  and  _175
REMARK   73  A    between atoms: _178  and  _180
REMARK   74  A    between atoms: _180  and  _181
REMARK   75  A    between atoms: _183  and  _185
REMARK   76  A    between atoms: _185  and  _186
REMARK   77  A    between atoms: _185  and  _188
REMARK   78  A    between atoms: _188  and  _189
REMARK   79  A    between atoms: _191  and  _193
REMARK   80  A    between atoms: _193  and  _194
REMARK   81  A    between atoms: _193  and  _196
REMARK   82  A    between atoms: _196  and  _197
REMARK   83  A    between atoms: _197  and  _198
REMARK   84  A    between atoms: _198  and  _199
REMARK   85  A    between atoms: _199  and  _200
REMARK   86  A    between atoms: _204  and  _206
REMARK   87  A    between atoms: _206  and  _207
REMARK   88  A    between atoms: _206  and  _209
REMARK   89  A    between atoms: _209  and  _210
REMARK   90  A    between atoms: _213  and  _215
REMARK   91  A    between atoms: _215  and  _216
REMARK   92  A    between atoms: _215  and  _218
REMARK   93  A    between atoms: _218  and  _219
REMARK   94  A    between atoms: _219  and  _220
REMARK   95  A    between atoms: _223  and  _225
REMARK   96  A    between atoms: _225  and  _226
REMARK   97  A    between atoms: _225  and  _228
REMARK   98  A    between atoms: _228  and  _229
REMARK   99  A    between atoms: _239  and  _241
REMARK  100  A    between atoms: _241  and  _242
REMARK  101  A    between atoms: _241  and  _244
REMARK  102  A    between atoms: _244  and  _245
REMARK  103  A    between atoms: _245  and  _246
REMARK  104  A    between atoms: _246  and  _247
REMARK  105  A    between atoms: _256  and  _258
REMARK  106  A    between atoms: _258  and  _259
REMARK  107  A    between atoms: _258  and  _261
REMARK  108  A    between atoms: _261  and  _262
REMARK  109  A    between atoms: _265  and  _267
REMARK  110  A    between atoms: _267  and  _268
REMARK  111  A    between atoms: _267  and  _270
REMARK  112  A    between atoms: _270  and  _271
REMARK  113  A    between atoms: _281  and  _283
REMARK  114  A    between atoms: _283  and  _284
REMARK  115  A    between atoms: _283  and  _286
REMARK  116  A    between atoms: _286  and  _287
REMARK  117  A    between atoms: _293  and  _295
REMARK  118  A    between atoms: _295  and  _296
REMARK  119  A    between atoms: _295  and  _298
REMARK  120  A    between atoms: _298  and  _299
REMARK  121  A    between atoms: _302  and  _304
REMARK  122  A    between atoms: _304  and  _305
REMARK  123  A    between atoms: _304  and  _307
REMARK  124  A    between atoms: _307  and  _308
REMARK  125  A    between atoms: _311  and  _313
REMARK  126  A    between atoms: _313  and  _314
REMARK  127  A    between atoms: _313  and  _316
REMARK  128  A    between atoms: _316  and  _317
REMARK  129  A    between atoms: _322  and  _323
REMARK  130  A    between atoms: _325  and  _327
REMARK  131  A    between atoms: _327  and  _328
REMARK  132  A    between atoms: _327  and  _330
REMARK  133  A    between atoms: _330  and  _331
REMARK  134  A    between atoms: _331  and  _332
REMARK  135  A    between atoms: _335  and  _337
REMARK  136  A    between atoms: _337  and  _338
REMARK  137  A    between atoms: _337  and  _340
REMARK  138  A    between atoms: _340  and  _341
REMARK  139  A    between atoms: _341  and  _342
REMARK  140  A    between atoms: _342  and  _343
REMARK  141  A    between atoms: _343  and  _344
REMARK  142  A    between atoms: _348  and  _350
REMARK  143  A    between atoms: _350  and  _351
REMARK  144  A    between atoms: _350  and  _353
REMARK  145  A    between atoms: _353  and  _354
REMARK  146  A    between atoms: _358  and  _359
REMARK  147  A    between atoms: _364  and  _366
REMARK  148  A    between atoms: _366  and  _367
REMARK  149  A    between atoms: _366  and  _369
REMARK  150  A    between atoms: _372  and  _374
REMARK  151  A    between atoms: _374  and  _375
REMARK  152  A    between atoms: _374  and  _377
REMARK  153  A    between atoms: _377  and  _378
REMARK  154  A    between atoms: _381  and  _383
REMARK  155  A    between atoms: _383  and  _384
REMARK  156  A    between atoms: _383  and  _386
REMARK  157  A    between atoms: _386  and  _387
REMARK  158  A    between atoms: _392  and  _393
REMARK  159  A    between atoms: _395  and  _397
REMARK  160  A    between atoms: _397  and  _398
REMARK  161  A    between atoms: _397  and  _400
REMARK  162  A    between atoms: _400  and  _401
REMARK  163  A    between atoms: _401  and  _402
REMARK  164  A    between atoms: _404  and  _406
REMARK  165  A    between atoms: _406  and  _407
REMARK  166  A    between atoms: _406  and  _409
REMARK  167  A    between atoms: _409  and  _410
REMARK  168  A    between atoms: _415  and  _416
REMARK  169  A    between atoms: _418  and  _420
REMARK  170  A    between atoms: _420  and  _421
REMARK  171  A    between atoms: _420  and  _423
REMARK  172  A    between atoms: _423  and  _424
REMARK  173  A    between atoms: _424  and  _425
REMARK  174  A    between atoms: _430  and  _432
REMARK  175  A    between atoms: _432  and  _433
REMARK  176  A    between atoms: _432  and  _435
REMARK  177  A    between atoms: _435  and  _436
REMARK  178  A    between atoms: _439  and  _441
REMARK  179  A    between atoms: _441  and  _442
REMARK  180  A    between atoms: _441  and  _444
REMARK  181  A    between atoms: _444  and  _445
REMARK  182  A    between atoms: _448  and  _450
REMARK  183  A    between atoms: _450  and  _451
REMARK  184  A    between atoms: _450  and  _453
REMARK  185  A    between atoms: _453  and  _454
REMARK  186  A    between atoms: _457  and  _459
REMARK  187  A    between atoms: _459  and  _460
REMARK  188  A    between atoms: _459  and  _462
REMARK  189  A    between atoms: _462  and  _463
REMARK  190  A    between atoms: _466  and  _468
REMARK  191  A    between atoms: _468  and  _469
REMARK  192  A    between atoms: _468  and  _471
REMARK  193  A    between atoms: _471  and  _472
REMARK  194  A    between atoms: _477  and  _478
REMARK  195  A    between atoms: _480  and  _482
REMARK  196  A    between atoms: _482  and  _483
REMARK  197  A    between atoms: _482  and  _485
REMARK  198  A    between atoms: _485  and  _486
REMARK  199  A    between atoms: _486  and  _487
REMARK  200  A    between atoms: _490  and  _492
REMARK  201  A    between atoms: _492  and  _493
REMARK  202  A    between atoms: _495  and  _497
REMARK  203  A    between atoms: _497  and  _498
REMARK  204  A    between atoms: _497  and  _500
REMARK  205  A    between atoms: _500  and  _501
REMARK  206  A    between atoms: _504  and  _506
REMARK  207  A    between atoms: _506  and  _507
REMARK  208  A    between atoms: _506  and  _509
REMARK  209  A    between atoms: _509  and  _510
REMARK  210  A    between atoms: _513  and  _515
REMARK  211  A    between atoms: _515  and  _516
REMARK  212  A    between atoms: _515  and  _518
REMARK  213  A    between atoms: _518  and  _519
REMARK  214  A    between atoms: _519  and  _520
REMARK  215  A    between atoms: _520  and  _521
REMARK  216  A    between atoms: _530  and  _532
REMARK  217  A    between atoms: _532  and  _533
REMARK  218  A    between atoms: _532  and  _535
REMARK  219  A    between atoms: _535  and  _536
REMARK  220  A    between atoms: _539  and  _541
REMARK  221  A    between atoms: _541  and  _542
REMARK  222  A    between atoms: _541  and  _544
REMARK  223  A    between atoms: _544  and  _545
REMARK  224  A    between atoms: _551  and  _553
REMARK  225  A    between atoms: _553  and  _554
REMARK  226  A    between atoms: _553  and  _556
REMARK  227  A    between atoms: _556  and  _557
REMARK  228  A    between atoms: _562  and  _564
REMARK  229  A    between atoms: _564  and  _565
REMARK  230  A    between atoms: _564  and  _567
REMARK  231  A    between atoms: _567  and  _568
REMARK  232  A    between atoms: _571  and  _573
REMARK  233  A    between atoms: _573  and  _574
REMARK  234  A    between atoms: _573  and  _576
REMARK  235  A    between atoms: _576  and  _577
REMARK  236  A    between atoms: _582  and  _583
REMARK                            x       y       z     vdW  Elec       q    Type
REMARK                         _______ _______ _______ _____ _____    ______ ____
ROOT
ATOM      1  O   HOH     1      20.859   0.905  -2.091  0.00  0.00    +0.000 OA
ENDROOT
TORSDOF 0
REMARK  Name = ../refined-set-2016/4h75/4h75_pocket.pdb
REMARK  236 active torsions:
REMARK  status: ('A' for Active; 'I' for Inactive)
REMARK    1  A    between atoms: _1  and  _3
REMARK    2  A    between atoms: _3  and  _4
REMARK    3  A    between atoms: _3  and  _6
REMARK    4  A    between atoms: _6  and  _7
REMARK    5  A    between atoms: _17  and  _19
REMARK    6  A    between atoms: _19  and  _20
REMARK    7  A    between atoms: _19  and  _22
REMARK    8  A    between atoms: _22  and  _23
REMARK    9  A    between atoms: _23  and  _24
REMARK   10  A    between atoms: _24  and  _25
REMARK   11  A    between atoms: _25  and  _26
REMARK   12  A    between atoms: _30  and  _32
REMARK   13  A    between atoms: _32  and  _33
REMARK   14  A    between atoms: _32  and  _35
REMARK   15  A    between atoms: _35  and  _36
REMARK   16  A    between atoms: _41  and  _42
REMARK   17  A    between atoms: _44  and  _46
REMARK   18  A    between atoms: _46  and  _47
REMARK   19  A    between atoms: _46  and  _49
REMARK   20  A    between atoms: _49  and  _50
REMARK   21  A    between atoms: _53  and  _55
REMARK   22  A    between atoms: _55  and  _56
REMARK   23  A    between atoms: _58  and  _60
REMARK   24  A    between atoms: _60  and  _61
REMARK   25  A    between atoms: _60  and  _63
REMARK   26  A    between atoms: _63  and  _64
REMARK   27  A    between atoms: _70  and  _72
REMARK   28  A    between atoms: _72  and  _73
REMARK   29  A    between atoms: _72  and  _75
REMARK   30  A    between atoms: _75  and  _76
REMARK   31  A    between atoms: _79  and  _81
REMARK   32  A    between atoms: _81  and  _82
REMARK   33  A    between atoms: _81  and  _84
REMARK   34  A    between atoms: _86  and  _88
REMARK   35  A    between atoms: _88  and  _89
REMARK   36  A    between atoms: _88  and  _91
REMARK   37  A    between atoms: _94  and  _96
REMARK   38  A    between atoms: _96  and  _97
REMARK   39  A    between atoms: _96  and  _99
REMARK   40  A    between atoms: _99  and  _100
REMARK   41  A    between atoms: _105  and  _106
REMARK   42  A    between atoms: _108  and  _110
REMARK   43  A    between atoms: _110  and  _111
REMARK   44  A    between atoms: _110  and  _113
REMARK   45  A    between atoms: _113  and  _114
REMARK   46  A    between atoms: _119  and  _121
REMARK   47  A    between atoms: _121  and  _122
REMARK   48  A    between atoms: _121  and  _124
REMARK   49  A    between atoms: _124  and  _125
REMARK   50  A    between atoms: _125  and  _126
REMARK   51  A    between atoms: _128  and  _130
REMARK   52  A    between atoms: _130  and  _131
REMARK   53  A    between atoms: _130  and  _133
REMARK   54  A    between atoms: _133  and  _134
REMARK   55  A    between atoms: _140  and  _142
REMARK   56  A    between atoms: _142  and  _143
REMARK   57  A    between atoms: _142  and  _145
REMARK   58  A    between atoms: _145  and  _146
REMARK   59  A    between atoms: _146  and  _147
REMARK   60  A    between atoms: _150  and  _152
REMARK   61  A    between atoms: _152  and  _153
REMARK   62  A    between atoms: _152  and  _155
REMARK   63  A    between atoms: _155  and  _156
REMARK   64  A    between atoms: _159  and  _161
REMARK   65  A    between atoms: _161  and  _162
REMARK   66  A    between atoms: _161  and  _164
REMARK   67  A    between atoms: _164  and  _165
REMARK   68  A    between atoms: _165  and  _166
REMARK   69  A    between atoms: _169  and  _171
REMARK   70  A    between atoms: _171  and  _172
REMARK   71  A    between atoms: _171  and  _174
REMARK   72  A    between atoms: _174  and  _175
REMARK   73  A    between atoms: _178  and  _180
REMARK   74  A    between atoms: _180  and  _181
REMARK   75  A    between atoms: _183  and  _185
REMARK   76  A    between atoms: _185  and  _186
REMARK   77  A    between atoms: _185  and  _188
REMARK   78  A    between atoms: _188  and  _189
REMARK   79  A    between atoms: _191  and  _193
REMARK   80  A    between atoms: _193  and  _194
REMARK   81  A    between atoms: _193  and  _196
REMARK   82  A    between atoms: _196  and  _197
REMARK   83  A    between atoms: _197  and  _198
REMARK   84  A    between atoms: _198  and  _199
REMARK   85  A    between atoms: _199  and  _200
REMARK   86  A    between atoms: _204  and  _206
REMARK   87  A    between atoms: _206  and  _207
REMARK   88  A    between atoms: _206  and  _209
REMARK   89  A    between atoms: _209  and  _210
REMARK   90  A    between atoms: _213  and  _215
REMARK   91  A    between atoms: _215  and  _216
REMARK   92  A    between atoms: _215  and  _218
REMARK   93  A    between atoms: _218  and  _219
REMARK   94  A    between atoms: _219  and  _220
REMARK   95  A    between atoms: _223  and  _225
REMARK   96  A    between atoms: _225  and  _226
REMARK   97  A    between atoms: _225  and  _228
REMARK   98  A    between atoms: _228  and  _229
REMARK   99  A    between atoms: _239  and  _241
REMARK  100  A    between atoms: _241  and  _242
REMARK  101  A    between atoms: _241  and  _244
REMARK  102  A    between atoms: _244  and  _245
REMARK  103  A    between atoms: _245  and  _246
REMARK  104  A    between atoms: _246  and  _247
REMARK  105  A    between atoms: _256  and  _258
REMARK  106  A    between atoms: _258  and  _259
REMARK  107  A    between atoms: _258  and  _261
REMARK  108  A    between atoms: _261  and  _262
REMARK  109  A    between atoms: _265  and  _267
REMARK  110  A    between atoms: _267  and  _268
REMARK  111  A    between atoms: _267  and  _270
REMARK  112  A    between atoms: _270  and  _271
REMARK  113  A    between atoms: _281  and  _283
REMARK  114  A    between atoms: _283  and  _284
REMARK  115  A    between atoms: _283  and  _286
REMARK  116  A    between atoms: _286  and  _287
REMARK  117  A    between atoms: _293  and  _295
REMARK  118  A    between atoms: _295  and  _296
REMARK  119  A    between atoms: _295  and  _298
REMARK  120  A    between atoms: _298  and  _299
REMARK  121  A    between atoms: _302  and  _304
REMARK  122  A    between atoms: _304  and  _305
REMARK  123  A    between atoms: _304  and  _307
REMARK  124  A    between atoms: _307  and  _308
REMARK  125  A    between atoms: _311  and  _313
REMARK  126  A    between atoms: _313  and  _314
REMARK  127  A    between atoms: _313  and  _316
REMARK  128  A    between atoms: _316  and  _317
REMARK  129  A    between atoms: _322  and  _323
REMARK  130  A    between atoms: _325  and  _327
REMARK  131  A    between atoms: _327  and  _328
REMARK  132  A    between atoms: _327  and  _330
REMARK  133  A    between atoms: _330  and  _331
REMARK  134  A    between atoms: _331  and  _332
REMARK  135  A    between atoms: _335  and  _337
REMARK  136  A    between atoms: _337  and  _338
REMARK  137  A    between atoms: _337  and  _340
REMARK  138  A    between atoms: _340  and  _341
REMARK  139  A    between atoms: _341  and  _342
REMARK  140  A    between atoms: _342  and  _343
REMARK  141  A    between atoms: _343  and  _344
REMARK  142  A    between atoms: _348  and  _350
REMARK  143  A    between atoms: _350  and  _351
REMARK  144  A    between atoms: _350  and  _353
REMARK  145  A    between atoms: _353  and  _354
REMARK  146  A    between atoms: _358  and  _359
REMARK  147  A    between atoms: _364  and  _366
REMARK  148  A    between atoms: _366  and  _367
REMARK  149  A    between atoms: _366  and  _369
REMARK  150  A    between atoms: _372  and  _374
REMARK  151  A    between atoms: _374  and  _375
REMARK  152  A    between atoms: _374  and  _377
REMARK  153  A    between atoms: _377  and  _378
REMARK  154  A    between atoms: _381  and  _383
REMARK  155  A    between atoms: _383  and  _384
REMARK  156  A    between atoms: _383  and  _386
REMARK  157  A    between atoms: _386  and  _387
REMARK  158  A    between atoms: _392  and  _393
REMARK  159  A    between atoms: _395  and  _397
REMARK  160  A    between atoms: _397  and  _398
REMARK  161  A    between atoms: _397  and  _400
REMARK  162  A    between atoms: _400  and  _401
REMARK  163  A    between atoms: _401  and  _402
REMARK  164  A    between atoms: _404  and  _406
REMARK  165  A    between atoms: _406  and  _407
REMARK  166  A    between atoms: _406  and  _409
REMARK  167  A    between atoms: _409  and  _410
REMARK  168  A    between atoms: _415  and  _416
REMARK  169  A    between atoms: _418  and  _420
REMARK  170  A    between atoms: _420  and  _421
REMARK  171  A    between atoms: _420  and  _423
REMARK  172  A    between atoms: _423  and  _424
REMARK  173  A    between atoms: _424  and  _425
REMARK  174  A    between atoms: _430  and  _432
REMARK  175  A    between atoms: _432  and  _433
REMARK  176  A    between atoms: _432  and  _435
REMARK  177  A    between atoms: _435  and  _436
REMARK  178  A    between atoms: _439  and  _441
REMARK  179  A    between atoms: _441  and  _442
REMARK  180  A    between atoms: _441  and  _444
REMARK  181  A    between atoms: _444  and  _445
REMARK  182  A    between atoms: _448  and  _450
REMARK  183  A    between atoms: _450  and  _451
REMARK  184  A    between atoms: _450  and  _453
REMARK  185  A    between atoms: _453  and  _454
REMARK  186  A    between atoms: _457  and  _459
REMARK  187  A    between atoms: _459  and  _460
REMARK  188  A    between atoms: _459  and  _462
REMARK  189  A    between atoms: _462  and  _463
REMARK  190  A    between atoms: _466  and  _468
REMARK  191  A    between atoms: _468  and  _469
REMARK  192  A    between atoms: _468  and  _471
REMARK  193  A    between atoms: _471  and  _472
REMARK  194  A    between atoms: _477  and  _478
REMARK  195  A    between atoms: _480  and  _482
REMARK  196  A    between atoms: _482  and  _483
REMARK  197  A    between atoms: _482  and  _485
REMARK  198  A    between atoms: _485  and  _486
REMARK  199  A    between atoms: _486  and  _487
REMARK  200  A    between atoms: _490  and  _492
REMARK  201  A    between atoms: _492  and  _493
REMARK  202  A    between atoms: _495  and  _497
REMARK  203  A    between atoms: _497  and  _498
REMARK  204  A    between atoms: _497  and  _500
REMARK  205  A    between atoms: _500  and  _501
REMARK  206  A    between atoms: _504  and  _506
REMARK  207  A    between atoms: _506  and  _507
REMARK  208  A    between atoms: _506  and  _509
REMARK  209  A    between atoms: _509  and  _510
REMARK  210  A    between atoms: _513  and  _515
REMARK  211  A    between atoms: _515  and  _516
REMARK  212  A    between atoms: _515  and  _518
REMARK  213  A    between atoms: _518  and  _519
REMARK  214  A    between atoms: _519  and  _520
REMARK  215  A    between atoms: _520  and  _521
REMARK  216  A    between atoms: _530  and  _532
REMARK  217  A    between atoms: _532  and  _533
REMARK  218  A    between atoms: _532  and  _535
REMARK  219  A    between atoms: _535  and  _536
REMARK  220  A    between atoms: _539  and  _541
REMARK  221  A    between atoms: _541  and  _542
REMARK  222  A    between atoms: _541  and  _544
REMARK  223  A    between atoms: _544  and  _545
REMARK  224  A    between atoms: _551  and  _553
REMARK  225  A    between atoms: _553  and  _554
REMARK  226  A    between atoms: _553  and  _556
REMARK  227  A    between atoms: _556  and  _557
REMARK  228  A    between atoms: _562  and  _564
REMARK  229  A    between atoms: _564  and  _565
REMARK  230  A    between atoms: _564  and  _567
REMARK  231  A    between atoms: _567  and  _568
REMARK  232  A    between atoms: _571  and  _573
REMARK  233  A    between atoms: _573  and  _574
REMARK  234  A    between atoms: _573  and  _576
REMARK  235  A    between atoms: _576  and  _577
REMARK  236  A    between atoms: _582  and  _583
REMARK                            x       y       z     vdW  Elec       q    Type
REMARK                         _______ _______ _______ _____ _____    ______ ____
ROOT
ATOM      1  O   HOH     1      17.685   7.582  -3.753  0.00  0.00    +0.000 OA
ENDROOT
TORSDOF 0
REMARK  Name = ../refined-set-2016/4h75/4h75_pocket.pdb
REMARK  236 active torsions:
REMARK  status: ('A' for Active; 'I' for Inactive)
REMARK    1  A    between atoms: _1  and  _3
REMARK    2  A    between atoms: _3  and  _4
REMARK    3  A    between atoms: _3  and  _6
REMARK    4  A    between atoms: _6  and  _7
REMARK    5  A    between atoms: _17  and  _19
REMARK    6  A    between atoms: _19  and  _20
REMARK    7  A    between atoms: _19  and  _22
REMARK    8  A    between atoms: _22  and  _23
REMARK    9  A    between atoms: _23  and  _24
REMARK   10  A    between atoms: _24  and  _25
REMARK   11  A    between atoms: _25  and  _26
REMARK   12  A    between atoms: _30  and  _32
REMARK   13  A    between atoms: _32  and  _33
REMARK   14  A    between atoms: _32  and  _35
REMARK   15  A    between atoms: _35  and  _36
REMARK   16  A    between atoms: _41  and  _42
REMARK   17  A    between atoms: _44  and  _46
REMARK   18  A    between atoms: _46  and  _47
REMARK   19  A    between atoms: _46  and  _49
REMARK   20  A    between atoms: _49  and  _50
REMARK   21  A    between atoms: _53  and  _55
REMARK   22  A    between atoms: _55  and  _56
REMARK   23  A    between atoms: _58  and  _60
REMARK   24  A    between atoms: _60  and  _61
REMARK   25  A    between atoms: _60  and  _63
REMARK   26  A    between atoms: _63  and  _64
REMARK   27  A    between atoms: _70  and  _72
REMARK   28  A    between atoms: _72  and  _73
REMARK   29  A    between atoms: _72  and  _75
REMARK   30  A    between atoms: _75  and  _76
REMARK   31  A    between atoms: _79  and  _81
REMARK   32  A    between atoms: _81  and  _82
REMARK   33  A    between atoms: _81  and  _84
REMARK   34  A    between atoms: _86  and  _88
REMARK   35  A    between atoms: _88  and  _89
REMARK   36  A    between atoms: _88  and  _91
REMARK   37  A    between atoms: _94  and  _96
REMARK   38  A    between atoms: _96  and  _97
REMARK   39  A    between atoms: _96  and  _99
REMARK   40  A    between atoms: _99  and  _100
REMARK   41  A    between atoms: _105  and  _106
REMARK   42  A    between atoms: _108  and  _110
REMARK   43  A    between atoms: _110  and  _111
REMARK   44  A    between atoms: _110  and  _113
REMARK   45  A    between atoms: _113  and  _114
REMARK   46  A    between atoms: _119  and  _121
REMARK   47  A    between atoms: _121  and  _122
REMARK   48  A    between atoms: _121  and  _124
REMARK   49  A    between atoms: _124  and  _125
REMARK   50  A    between atoms: _125  and  _126
REMARK   51  A    between atoms: _128  and  _130
REMARK   52  A    between atoms: _130  and  _131
REMARK   53  A    between atoms: _130  and  _133
REMARK   54  A    between atoms: _133  and  _134
REMARK   55  A    between atoms: _140  and  _142
REMARK   56  A    between atoms: _142  and  _143
REMARK   57  A    between atoms: _142  and  _145
REMARK   58  A    between atoms: _145  and  _146
REMARK   59  A    between atoms: _146  and  _147
REMARK   60  A    between atoms: _150  and  _152
REMARK   61  A    between atoms: _152  and  _153
REMARK   62  A    between atoms: _152  and  _155
REMARK   63  A    between atoms: _155  and  _156
REMARK   64  A    between atoms: _159  and  _161
REMARK   65  A    between atoms: _161  and  _162
REMARK   66  A    between atoms: _161  and  _164
REMARK   67  A    between atoms: _164  and  _165
REMARK   68  A    between atoms: _165  and  _166
REMARK   69  A    between atoms: _169  and  _171
REMARK   70  A    between atoms: _171  and  _172
REMARK   71  A    between atoms: _171  and  _174
REMARK   72  A    between atoms: _174  and  _175
REMARK   73  A    between atoms: _178  and  _180
REMARK   74  A    between atoms: _180  and  _181
REMARK   75  A    between atoms: _183  and  _185
REMARK   76  A    between atoms: _185  and  _186
REMARK   77  A    between atoms: _185  and  _188
REMARK   78  A    between atoms: _188  and  _189
REMARK   79  A    between atoms: _191  and  _193
REMARK   80  A    between atoms: _193  and  _194
REMARK   81  A    between atoms: _193  and  _196
REMARK   82  A    between atoms: _196  and  _197
REMARK   83  A    between atoms: _197  and  _198
REMARK   84  A    between atoms: _198  and  _199
REMARK   85  A    between atoms: _199  and  _200
REMARK   86  A    between atoms: _204  and  _206
REMARK   87  A    between atoms: _206  and  _207
REMARK   88  A    between atoms: _206  and  _209
REMARK   89  A    between atoms: _209  and  _210
REMARK   90  A    between atoms: _213  and  _215
REMARK   91  A    between atoms: _215  and  _216
REMARK   92  A    between atoms: _215  and  _218
REMARK   93  A    between atoms: _218  and  _219
REMARK   94  A    between atoms: _219  and  _220
REMARK   95  A    between atoms: _223  and  _225
REMARK   96  A    between atoms: _225  and  _226
REMARK   97  A    between atoms: _225  and  _228
REMARK   98  A    between atoms: _228  and  _229
REMARK   99  A    between atoms: _239  and  _241
REMARK  100  A    between atoms: _241  and  _242
REMARK  101  A    between atoms: _241  and  _244
REMARK  102  A    between atoms: _244  and  _245
REMARK  103  A    between atoms: _245  and  _246
REMARK  104  A    between atoms: _246  and  _247
REMARK  105  A    between atoms: _256  and  _258
REMARK  106  A    between atoms: _258  and  _259
REMARK  107  A    between atoms: _258  and  _261
REMARK  108  A    between atoms: _261  and  _262
REMARK  109  A    between atoms: _265  and  _267
REMARK  110  A    between atoms: _267  and  _268
REMARK  111  A    between atoms: _267  and  _270
REMARK  112  A    between atoms: _270  and  _271
REMARK  113  A    between atoms: _281  and  _283
REMARK  114  A    between atoms: _283  and  _284
REMARK  115  A    between atoms: _283  and  _286
REMARK  116  A    between atoms: _286  and  _287
REMARK  117  A    between atoms: _293  and  _295
REMARK  118  A    between atoms: _295  and  _296
REMARK  119  A    between atoms: _295  and  _298
REMARK  120  A    between atoms: _298  and  _299
REMARK  121  A    between atoms: _302  and  _304
REMARK  122  A    between atoms: _304  and  _305
REMARK  123  A    between atoms: _304  and  _307
REMARK  124  A    between atoms: _307  and  _308
REMARK  125  A    between atoms: _311  and  _313
REMARK  126  A    between atoms: _313  and  _314
REMARK  127  A    between atoms: _313  and  _316
REMARK  128  A    between atoms: _316  and  _317
REMARK  129  A    between atoms: _322  and  _323
REMARK  130  A    between atoms: _325  and  _327
REMARK  131  A    between atoms: _327  and  _328
REMARK  132  A    between atoms: _327  and  _330
REMARK  133  A    between atoms: _330  and  _331
REMARK  134  A    between atoms: _331  and  _332
REMARK  135  A    between atoms: _335  and  _337
REMARK  136  A    between atoms: _337  and  _338
REMARK  137  A    between atoms: _337  and  _340
REMARK  138  A    between atoms: _340  and  _341
REMARK  139  A    between atoms: _341  and  _342
REMARK  140  A    between atoms: _342  and  _343
REMARK  141  A    between atoms: _343  and  _344
REMARK  142  A    between atoms: _348  and  _350
REMARK  143  A    between atoms: _350  and  _351
REMARK  144  A    between atoms: _350  and  _353
REMARK  145  A    between atoms: _353  and  _354
REMARK  146  A    between atoms: _358  and  _359
REMARK  147  A    between atoms: _364  and  _366
REMARK  148  A    between atoms: _366  and  _367
REMARK  149  A    between atoms: _366  and  _369
REMARK  150  A    between atoms: _372  and  _374
REMARK  151  A    between atoms: _374  and  _375
REMARK  152  A    between atoms: _374  and  _377
REMARK  153  A    between atoms: _377  and  _378
REMARK  154  A    between atoms: _381  and  _383
REMARK  155  A    between atoms: _383  and  _384
REMARK  156  A    between atoms: _383  and  _386
REMARK  157  A    between atoms: _386  and  _387
REMARK  158  A    between atoms: _392  and  _393
REMARK  159  A    between atoms: _395  and  _397
REMARK  160  A    between atoms: _397  and  _398
REMARK  161  A    between atoms: _397  and  _400
REMARK  162  A    between atoms: _400  and  _401
REMARK  163  A    between atoms: _401  and  _402
REMARK  164  A    between atoms: _404  and  _406
REMARK  165  A    between atoms: _406  and  _407
REMARK  166  A    between atoms: _406  and  _409
REMARK  167  A    between atoms: _409  and  _410
REMARK  168  A    between atoms: _415  and  _416
REMARK  169  A    between atoms: _418  and  _420
REMARK  170  A    between atoms: _420  and  _421
REMARK  171  A    between atoms: _420  and  _423
REMARK  172  A    between atoms: _423  and  _424
REMARK  173  A    between atoms: _424  and  _425
REMARK  174  A    between atoms: _430  and  _432
REMARK  175  A    between atoms: _432  and  _433
REMARK  176  A    between atoms: _432  and  _435
REMARK  177  A    between atoms: _435  and  _436
REMARK  178  A    between atoms: _439  and  _441
REMARK  179  A    between atoms: _441  and  _442
REMARK  180  A    between atoms: _441  and  _444
REMARK  181  A    between atoms: _444  and  _445
REMARK  182  A    between atoms: _448  and  _450
REMARK  183  A    between atoms: _450  and  _451
REMARK  184  A    between atoms: _450  and  _453
REMARK  185  A    between atoms: _453  and  _454
REMARK  186  A    between atoms: _457  and  _459
REMARK  187  A    between atoms: _459  and  _460
REMARK  188  A    between atoms: _459  and  _462
REMARK  189  A    between atoms: _462  and  _463
REMARK  190  A    between atoms: _466  and  _468
REMARK  191  A    between atoms: _468  and  _469
REMARK  192  A    between atoms: _468  and  _471
REMARK  193  A    between atoms: _471  and  _472
REMARK  194  A    between atoms: _477  and  _478
REMARK  195  A    between atoms: _480  and  _482
REMARK  196  A    between atoms: _482  and  _483
REMARK  197  A    between atoms: _482  and  _485
REMARK  198  A    between atoms: _485  and  _486
REMARK  199  A    between atoms: _486  and  _487
REMARK  200  A    between atoms: _490  and  _492
REMARK  201  A    between atoms: _492  and  _493
REMARK  202  A    between atoms: _495  and  _497
REMARK  203  A    between atoms: _497  and  _498
REMARK  204  A    between atoms: _497  and  _500
REMARK  205  A    between atoms: _500  and  _501
REMARK  206  A    between atoms: _504  and  _506
REMARK  207  A    between atoms: _506  and  _507
REMARK  208  A    between atoms: _506  and  _509
REMARK  209  A    between atoms: _509  and  _510
REMARK  210  A    between atoms: _513  and  _515
REMARK  211  A    between atoms: _515  and  _516
REMARK  212  A    between atoms: _515  and  _518
REMARK  213  A    between atoms: _518  and  _519
REMARK  214  A    between atoms: _519  and  _520
REMARK  215  A    between atoms: _520  and  _521
REMARK  216  A    between atoms: _530  and  _532
REMARK  217  A    between atoms: _532  and  _533
REMARK  218  A    between atoms: _532  and  _535
REMARK  219  A    between atoms: _535  and  _536
REMARK  220  A    between atoms: _539  and  _541
REMARK  221  A    between atoms: _541  and  _542
REMARK  222  A    between atoms: _541  and  _544
REMARK  223  A    between atoms: _544  and  _545
REMARK  224  A    between atoms: _551  and  _553
REMARK  225  A    between atoms: _553  and  _554
REMARK  226  A    between atoms: _553  and  _556
REMARK  227  A    between atoms: _556  and  _557
REMARK  228  A    between atoms: _562  and  _564
REMARK  229  A    between atoms: _564  and  _565
REMARK  230  A    between atoms: _564  and  _567
REMARK  231  A    between atoms: _567  and  _568
REMARK  232  A    between atoms: _571  and  _573
REMARK  233  A    between atoms: _573  and  _574
REMARK  234  A    between atoms: _573  and  _576
REMARK  235  A    between atoms: _576  and  _577
REMARK  236  A    between atoms: _582  and  _583
REMARK                            x       y       z     vdW  Elec       q    Type
REMARK                         _______ _______ _______ _____ _____    ______ ____
ROOT
ATOM      1  O   HOH     1      18.075  -2.759   4.053  0.00  0.00    +0.000 OA
ENDROOT
TORSDOF 0
REMARK  Name = ../refined-set-2016/4h75/4h75_pocket.pdb
REMARK  236 active torsions:
REMARK  status: ('A' for Active; 'I' for Inactive)
REMARK    1  A    between atoms: _1  and  _3
REMARK    2  A    between atoms: _3  and  _4
REMARK    3  A    between atoms: _3  and  _6
REMARK    4  A    between atoms: _6  and  _7
REMARK    5  A    between atoms: _17  and  _19
REMARK    6  A    between atoms: _19  and  _20
REMARK    7  A    between atoms: _19  and  _22
REMARK    8  A    between atoms: _22  and  _23
REMARK    9  A    between atoms: _23  and  _24
REMARK   10  A    between atoms: _24  and  _25
REMARK   11  A    between atoms: _25  and  _26
REMARK   12  A    between atoms: _30  and  _32
REMARK   13  A    between atoms: _32  and  _33
REMARK   14  A    between atoms: _32  and  _35
REMARK   15  A    between atoms: _35  and  _36
REMARK   16  A    between atoms: _41  and  _42
REMARK   17  A    between atoms: _44  and  _46
REMARK   18  A    between atoms: _46  and  _47
REMARK   19  A    between atoms: _46  and  _49
REMARK   20  A    between atoms: _49  and  _50
REMARK   21  A    between atoms: _53  and  _55
REMARK   22  A    between atoms: _55  and  _56
REMARK   23  A    between atoms: _58  and  _60
REMARK   24  A    between atoms: _60  and  _61
REMARK   25  A    between atoms: _60  and  _63
REMARK   26  A    between atoms: _63  and  _64
REMARK   27  A    between atoms: _70  and  _72
REMARK   28  A    between atoms: _72  and  _73
REMARK   29  A    between atoms: _72  and  _75
REMARK   30  A    between atoms: _75  and  _76
REMARK   31  A    between atoms: _79  and  _81
REMARK   32  A    between atoms: _81  and  _82
REMARK   33  A    between atoms: _81  and  _84
REMARK   34  A    between atoms: _86  and  _88
REMARK   35  A    between atoms: _88  and  _89
REMARK   36  A    between atoms: _88  and  _91
REMARK   37  A    between atoms: _94  and  _96
REMARK   38  A    between atoms: _96  and  _97
REMARK   39  A    between atoms: _96  and  _99
REMARK   40  A    between atoms: _99  and  _100
REMARK   41  A    between atoms: _105  and  _106
REMARK   42  A    between atoms: _108  and  _110
REMARK   43  A    between atoms: _110  and  _111
REMARK   44  A    between atoms: _110  and  _113
REMARK   45  A    between atoms: _113  and  _114
REMARK   46  A    between atoms: _119  and  _121
REMARK   47  A    between atoms: _121  and  _122
REMARK   48  A    between atoms: _121  and  _124
REMARK   49  A    between atoms: _124  and  _125
REMARK   50  A    between atoms: _125  and  _126
REMARK   51  A    between atoms: _128  and  _130
REMARK   52  A    between atoms: _130  and  _131
REMARK   53  A    between atoms: _130  and  _133
REMARK   54  A    between atoms: _133  and  _134
REMARK   55  A    between atoms: _140  and  _142
REMARK   56  A    between atoms: _142  and  _143
REMARK   57  A    between atoms: _142  and  _145
REMARK   58  A    between atoms: _145  and  _146
REMARK   59  A    between atoms: _146  and  _147
REMARK   60  A    between atoms: _150  and  _152
REMARK   61  A    between atoms: _152  and  _153
REMARK   62  A    between atoms: _152  and  _155
REMARK   63  A    between atoms: _155  and  _156
REMARK   64  A    between atoms: _159  and  _161
REMARK   65  A    between atoms: _161  and  _162
REMARK   66  A    between atoms: _161  and  _164
REMARK   67  A    between atoms: _164  and  _165
REMARK   68  A    between atoms: _165  and  _166
REMARK   69  A    between atoms: _169  and  _171
REMARK   70  A    between atoms: _171  and  _172
REMARK   71  A    between atoms: _171  and  _174
REMARK   72  A    between atoms: _174  and  _175
REMARK   73  A    between atoms: _178  and  _180
REMARK   74  A    between atoms: _180  and  _181
REMARK   75  A    between atoms: _183  and  _185
REMARK   76  A    between atoms: _185  and  _186
REMARK   77  A    between atoms: _185  and  _188
REMARK   78  A    between atoms: _188  and  _189
REMARK   79  A    between atoms: _191  and  _193
REMARK   80  A    between atoms: _193  and  _194
REMARK   81  A    between atoms: _193  and  _196
REMARK   82  A    between atoms: _196  and  _197
REMARK   83  A    between atoms: _197  and  _198
REMARK   84  A    between atoms: _198  and  _199
REMARK   85  A    between atoms: _199  and  _200
REMARK   86  A    between atoms: _204  and  _206
REMARK   87  A    between atoms: _206  and  _207
REMARK   88  A    between atoms: _206  and  _209
REMARK   89  A    between atoms: _209  and  _210
REMARK   90  A    between atoms: _213  and  _215
REMARK   91  A    between atoms: _215  and  _216
REMARK   92  A    between atoms: _215  and  _218
REMARK   93  A    between atoms: _218  and  _219
REMARK   94  A    between atoms: _219  and  _220
REMARK   95  A    between atoms: _223  and  _225
REMARK   96  A    between atoms: _225  and  _226
REMARK   97  A    between atoms: _225  and  _228
REMARK   98  A    between atoms: _228  and  _229
REMARK   99  A    between atoms: _239  and  _241
REMARK  100  A    between atoms: _241  and  _242
REMARK  101  A    between atoms: _241  and  _244
REMARK  102  A    between atoms: _244  and  _245
REMARK  103  A    between atoms: _245  and  _246
REMARK  104  A    between atoms: _246  and  _247
REMARK  105  A    between atoms: _256  and  _258
REMARK  106  A    between atoms: _258  and  _259
REMARK  107  A    between atoms: _258  and  _261
REMARK  108  A    between atoms: _261  and  _262
REMARK  109  A    between atoms: _265  and  _267
REMARK  110  A    between atoms: _267  and  _268
REMARK  111  A    between atoms: _267  and  _270
REMARK  112  A    between atoms: _270  and  _271
REMARK  113  A    between atoms: _281  and  _283
REMARK  114  A    between atoms: _283  and  _284
REMARK  115  A    between atoms: _283  and  _286
REMARK  116  A    between atoms: _286  and  _287
REMARK  117  A    between atoms: _293  and  _295
REMARK  118  A    between atoms: _295  and  _296
REMARK  119  A    between atoms: _295  and  _298
REMARK  120  A    between atoms: _298  and  _299
REMARK  121  A    between atoms: _302  and  _304
REMARK  122  A    between atoms: _304  and  _305
REMARK  123  A    between atoms: _304  and  _307
REMARK  124  A    between atoms: _307  and  _308
REMARK  125  A    between atoms: _311  and  _313
REMARK  126  A    between atoms: _313  and  _314
REMARK  127  A    between atoms: _313  and  _316
REMARK  128  A    between atoms: _316  and  _317
REMARK  129  A    between atoms: _322  and  _323
REMARK  130  A    between atoms: _325  and  _327
REMARK  131  A    between atoms: _327  and  _328
REMARK  132  A    between atoms: _327  and  _330
REMARK  133  A    between atoms: _330  and  _331
REMARK  134  A    between atoms: _331  and  _332
REMARK  135  A    between atoms: _335  and  _337
REMARK  136  A    between atoms: _337  and  _338
REMARK  137  A    between atoms: _337  and  _340
REMARK  138  A    between atoms: _340  and  _341
REMARK  139  A    between atoms: _341  and  _342
REMARK  140  A    between atoms: _342  and  _343
REMARK  141  A    between atoms: _343  and  _344
REMARK  142  A    between atoms: _348  and  _350
REMARK  143  A    between atoms: _350  and  _351
REMARK  144  A    between atoms: _350  and  _353
REMARK  145  A    between atoms: _353  and  _354
REMARK  146  A    between atoms: _358  and  _359
REMARK  147  A    between atoms: _364  and  _366
REMARK  148  A    between atoms: _366  and  _367
REMARK  149  A    between atoms: _366  and  _369
REMARK  150  A    between atoms: _372  and  _374
REMARK  151  A    between atoms: _374  and  _375
REMARK  152  A    between atoms: _374  and  _377
REMARK  153  A    between atoms: _377  and  _378
REMARK  154  A    between atoms: _381  and  _383
REMARK  155  A    between atoms: _383  and  _384
REMARK  156  A    between atoms: _383  and  _386
REMARK  157  A    between atoms: _386  and  _387
REMARK  158  A    between atoms: _392  and  _393
REMARK  159  A    between atoms: _395  and  _397
REMARK  160  A    between atoms: _397  and  _398
REMARK  161  A    between atoms: _397  and  _400
REMARK  162  A    between atoms: _400  and  _401
REMARK  163  A    between atoms: _401  and  _402
REMARK  164  A    between atoms: _404  and  _406
REMARK  165  A    between atoms: _406  and  _407
REMARK  166  A    between atoms: _406  and  _409
REMARK  167  A    between atoms: _409  and  _410
REMARK  168  A    between atoms: _415  and  _416
REMARK  169  A    between atoms: _418  and  _420
REMARK  170  A    between atoms: _420  and  _421
REMARK  171  A    between atoms: _420  and  _423
REMARK  172  A    between atoms: _423  and  _424
REMARK  173  A    between atoms: _424  and  _425
REMARK  174  A    between atoms: _430  and  _432
REMARK  175  A    between atoms: _432  and  _433
REMARK  176  A    between atoms: _432  and  _435
REMARK  177  A    between atoms: _435  and  _436
REMARK  178  A    between atoms: _439  and  _441
REMARK  179  A    between atoms: _441  and  _442
REMARK  180  A    between atoms: _441  and  _444
REMARK  181  A    between atoms: _444  and  _445
REMARK  182  A    between atoms: _448  and  _450
REMARK  183  A    between atoms: _450  and  _451
REMARK  184  A    between atoms: _450  and  _453
REMARK  185  A    between atoms: _453  and  _454
REMARK  186  A    between atoms: _457  and  _459
REMARK  187  A    between atoms: _459  and  _460
REMARK  188  A    between atoms: _459  and  _462
REMARK  189  A    between atoms: _462  and  _463
REMARK  190  A    between atoms: _466  and  _468
REMARK  191  A    between atoms: _468  and  _469
REMARK  192  A    between atoms: _468  and  _471
REMARK  193  A    between atoms: _471  and  _472
REMARK  194  A    between atoms: _477  and  _478
REMARK  195  A    between atoms: _480  and  _482
REMARK  196  A    between atoms: _482  and  _483
REMARK  197  A    between atoms: _482  and  _485
REMARK  198  A    between atoms: _485  and  _486
REMARK  199  A    between atoms: _486  and  _487
REMARK  200  A    between atoms: _490  and  _492
REMARK  201  A    between atoms: _492  and  _493
REMARK  202  A    between atoms: _495  and  _497
REMARK  203  A    between atoms: _497  and  _498
REMARK  204  A    between atoms: _497  and  _500
REMARK  205  A    between atoms: _500  and  _501
REMARK  206  A    between atoms: _504  and  _506
REMARK  207  A    between atoms: _506  and  _507
REMARK  208  A    between atoms: _506  and  _509
REMARK  209  A    between atoms: _509  and  _510
REMARK  210  A    between atoms: _513  and  _515
REMARK  211  A    between atoms: _515  and  _516
REMARK  212  A    between atoms: _515  and  _518
REMARK  213  A    between atoms: _518  and  _519
REMARK  214  A    between atoms: _519  and  _520
REMARK  215  A    between atoms: _520  and  _521
REMARK  216  A    between atoms: _530  and  _532
REMARK  217  A    between atoms: _532  and  _533
REMARK  218  A    between atoms: _532  and  _535
REMARK  219  A    between atoms: _535  and  _536
REMARK  220  A    between atoms: _539  and  _541
REMARK  221  A    between atoms: _541  and  _542
REMARK  222  A    between atoms: _541  and  _544
REMARK  223  A    between atoms: _544  and  _545
REMARK  224  A    between atoms: _551  and  _553
REMARK  225  A    between atoms: _553  and  _554
REMARK  226  A    between atoms: _553  and  _556
REMARK  227  A    between atoms: _556  and  _557
REMARK  228  A    between atoms: _562  and  _564
REMARK  229  A    between atoms: _564  and  _565
REMARK  230  A    between atoms: _564  and  _567
REMARK  231  A    between atoms: _567  and  _568
REMARK  232  A    between atoms: _571  and  _573
REMARK  233  A    between atoms: _573  and  _574
REMARK  234  A    between atoms: _573  and  _576
REMARK  235  A    between atoms: _576  and  _577
REMARK  236  A    between atoms: _582  and  _583
REMARK                            x       y       z     vdW  Elec       q    Type
REMARK                         _______ _______ _______ _____ _____    ______ ____
ROOT
ATOM      1  O   HOH     1      22.796   2.153  -0.099  0.00  0.00    +0.000 OA
ENDROOT
TORSDOF 0
REMARK  Name = ../refined-set-2016/4h75/4h75_pocket.pdb
REMARK  236 active torsions:
REMARK  status: ('A' for Active; 'I' for Inactive)
REMARK    1  A    between atoms: _1  and  _3
REMARK    2  A    between atoms: _3  and  _4
REMARK    3  A    between atoms: _3  and  _6
REMARK    4  A    between atoms: _6  and  _7
REMARK    5  A    between atoms: _17  and  _19
REMARK    6  A    between atoms: _19  and  _20
REMARK    7  A    between atoms: _19  and  _22
REMARK    8  A    between atoms: _22  and  _23
REMARK    9  A    between atoms: _23  and  _24
REMARK   10  A    between atoms: _24  and  _25
REMARK   11  A    between atoms: _25  and  _26
REMARK   12  A    between atoms: _30  and  _32
REMARK   13  A    between atoms: _32  and  _33
REMARK   14  A    between atoms: _32  and  _35
REMARK   15  A    between atoms: _35  and  _36
REMARK   16  A    between atoms: _41  and  _42
REMARK   17  A    between atoms: _44  and  _46
REMARK   18  A    between atoms: _46  and  _47
REMARK   19  A    between atoms: _46  and  _49
REMARK   20  A    between atoms: _49  and  _50
REMARK   21  A    between atoms: _53  and  _55
REMARK   22  A    between atoms: _55  and  _56
REMARK   23  A    between atoms: _58  and  _60
REMARK   24  A    between atoms: _60  and  _61
REMARK   25  A    between atoms: _60  and  _63
REMARK   26  A    between atoms: _63  and  _64
REMARK   27  A    between atoms: _70  and  _72
REMARK   28  A    between atoms: _72  and  _73
REMARK   29  A    between atoms: _72  and  _75
REMARK   30  A    between atoms: _75  and  _76
REMARK   31  A    between atoms: _79  and  _81
REMARK   32  A    between atoms: _81  and  _82
REMARK   33  A    between atoms: _81  and  _84
REMARK   34  A    between atoms: _86  and  _88
REMARK   35  A    between atoms: _88  and  _89
REMARK   36  A    between atoms: _88  and  _91
REMARK   37  A    between atoms: _94  and  _96
REMARK   38  A    between atoms: _96  and  _97
REMARK   39  A    between atoms: _96  and  _99
REMARK   40  A    between atoms: _99  and  _100
REMARK   41  A    between atoms: _105  and  _106
REMARK   42  A    between atoms: _108  and  _110
REMARK   43  A    between atoms: _110  and  _111
REMARK   44  A    between atoms: _110  and  _113
REMARK   45  A    between atoms: _113  and  _114
REMARK   46  A    between atoms: _119  and  _121
REMARK   47  A    between atoms: _121  and  _122
REMARK   48  A    between atoms: _121  and  _124
REMARK   49  A    between atoms: _124  and  _125
REMARK   50  A    between atoms: _125  and  _126
REMARK   51  A    between atoms: _128  and  _130
REMARK   52  A    between atoms: _130  and  _131
REMARK   53  A    between atoms: _130  and  _133
REMARK   54  A    between atoms: _133  and  _134
REMARK   55  A    between atoms: _140  and  _142
REMARK   56  A    between atoms: _142  and  _143
REMARK   57  A    between atoms: _142  and  _145
REMARK   58  A    between atoms: _145  and  _146
REMARK   59  A    between atoms: _146  and  _147
REMARK   60  A    between atoms: _150  and  _152
REMARK   61  A    between atoms: _152  and  _153
REMARK   62  A    between atoms: _152  and  _155
REMARK   63  A    between atoms: _155  and  _156
REMARK   64  A    between atoms: _159  and  _161
REMARK   65  A    between atoms: _161  and  _162
REMARK   66  A    between atoms: _161  and  _164
REMARK   67  A    between atoms: _164  and  _165
REMARK   68  A    between atoms: _165  and  _166
REMARK   69  A    between atoms: _169  and  _171
REMARK   70  A    between atoms: _171  and  _172
REMARK   71  A    between atoms: _171  and  _174
REMARK   72  A    between atoms: _174  and  _175
REMARK   73  A    between atoms: _178  and  _180
REMARK   74  A    between atoms: _180  and  _181
REMARK   75  A    between atoms: _183  and  _185
REMARK   76  A    between atoms: _185  and  _186
REMARK   77  A    between atoms: _185  and  _188
REMARK   78  A    between atoms: _188  and  _189
REMARK   79  A    between atoms: _191  and  _193
REMARK   80  A    between atoms: _193  and  _194
REMARK   81  A    between atoms: _193  and  _196
REMARK   82  A    between atoms: _196  and  _197
REMARK   83  A    between atoms: _197  and  _198
REMARK   84  A    between atoms: _198  and  _199
REMARK   85  A    between atoms: _199  and  _200
REMARK   86  A    between atoms: _204  and  _206
REMARK   87  A    between atoms: _206  and  _207
REMARK   88  A    between atoms: _206  and  _209
REMARK   89  A    between atoms: _209  and  _210
REMARK   90  A    between atoms: _213  and  _215
REMARK   91  A    between atoms: _215  and  _216
REMARK   92  A    between atoms: _215  and  _218
REMARK   93  A    between atoms: _218  and  _219
REMARK   94  A    between atoms: _219  and  _220
REMARK   95  A    between atoms: _223  and  _225
REMARK   96  A    between atoms: _225  and  _226
REMARK   97  A    between atoms: _225  and  _228
REMARK   98  A    between atoms: _228  and  _229
REMARK   99  A    between atoms: _239  and  _241
REMARK  100  A    between atoms: _241  and  _242
REMARK  101  A    between atoms: _241  and  _244
REMARK  102  A    between atoms: _244  and  _245
REMARK  103  A    between atoms: _245  and  _246
REMARK  104  A    between atoms: _246  and  _247
REMARK  105  A    between atoms: _256  and  _258
REMARK  106  A    between atoms: _258  and  _259
REMARK  107  A    between atoms: _258  and  _261
REMARK  108  A    between atoms: _261  and  _262
REMARK  109  A    between atoms: _265  and  _267
REMARK  110  A    between atoms: _267  and  _268
REMARK  111  A    between atoms: _267  and  _270
REMARK  112  A    between atoms: _270  and  _271
REMARK  113  A    between atoms: _281  and  _283
REMARK  114  A    between atoms: _283  and  _284
REMARK  115  A    between atoms: _283  and  _286
REMARK  116  A    between atoms: _286  and  _287
REMARK  117  A    between atoms: _293  and  _295
REMARK  118  A    between atoms: _295  and  _296
REMARK  119  A    between atoms: _295  and  _298
REMARK  120  A    between atoms: _298  and  _299
REMARK  121  A    between atoms: _302  and  _304
REMARK  122  A    between atoms: _304  and  _305
REMARK  123  A    between atoms: _304  and  _307
REMARK  124  A    between atoms: _307  and  _308
REMARK  125  A    between atoms: _311  and  _313
REMARK  126  A    between atoms: _313  and  _314
REMARK  127  A    between atoms: _313  and  _316
REMARK  128  A    between atoms: _316  and  _317
REMARK  129  A    between atoms: _322  and  _323
REMARK  130  A    between atoms: _325  and  _327
REMARK  131  A    between atoms: _327  and  _328
REMARK  132  A    between atoms: _327  and  _330
REMARK  133  A    between atoms: _330  and  _331
REMARK  134  A    between atoms: _331  and  _332
REMARK  135  A    between atoms: _335  and  _337
REMARK  136  A    between atoms: _337  and  _338
REMARK  137  A    between atoms: _337  and  _340
REMARK  138  A    between atoms: _340  and  _341
REMARK  139  A    between atoms: _341  and  _342
REMARK  140  A    between atoms: _342  and  _343
REMARK  141  A    between atoms: _343  and  _344
REMARK  142  A    between atoms: _348  and  _350
REMARK  143  A    between atoms: _350  and  _351
REMARK  144  A    between atoms: _350  and  _353
REMARK  145  A    between atoms: _353  and  _354
REMARK  146  A    between atoms: _358  and  _359
REMARK  147  A    between atoms: _364  and  _366
REMARK  148  A    between atoms: _366  and  _367
REMARK  149  A    between atoms: _366  and  _369
REMARK  150  A    between atoms: _372  and  _374
REMARK  151  A    between atoms: _374  and  _375
REMARK  152  A    between atoms: _374  and  _377
REMARK  153  A    between atoms: _377  and  _378
REMARK  154  A    between atoms: _381  and  _383
REMARK  155  A    between atoms: _383  and  _384
REMARK  156  A    between atoms: _383  and  _386
REMARK  157  A    between atoms: _386  and  _387
REMARK  158  A    between atoms: _392  and  _393
REMARK  159  A    between atoms: _395  and  _397
REMARK  160  A    between atoms: _397  and  _398
REMARK  161  A    between atoms: _397  and  _400
REMARK  162  A    between atoms: _400  and  _401
REMARK  163  A    between atoms: _401  and  _402
REMARK  164  A    between atoms: _404  and  _406
REMARK  165  A    between atoms: _406  and  _407
REMARK  166  A    between atoms: _406  and  _409
REMARK  167  A    between atoms: _409  and  _410
REMARK  168  A    between atoms: _415  and  _416
REMARK  169  A    between atoms: _418  and  _420
REMARK  170  A    between atoms: _420  and  _421
REMARK  171  A    between atoms: _420  and  _423
REMARK  172  A    between atoms: _423  and  _424
REMARK  173  A    between atoms: _424  and  _425
REMARK  174  A    between atoms: _430  and  _432
REMARK  175  A    between atoms: _432  and  _433
REMARK  176  A    between atoms: _432  and  _435
REMARK  177  A    between atoms: _435  and  _436
REMARK  178  A    between atoms: _439  and  _441
REMARK  179  A    between atoms: _441  and  _442
REMARK  180  A    between atoms: _441  and  _444
REMARK  181  A    between atoms: _444  and  _445
REMARK  182  A    between atoms: _448  and  _450
REMARK  183  A    between atoms: _450  and  _451
REMARK  184  A    between atoms: _450  and  _453
REMARK  185  A    between atoms: _453  and  _454
REMARK  186  A    between atoms: _457  and  _459
REMARK  187  A    between atoms: _459  and  _460
REMARK  188  A    between atoms: _459  and  _462
REMARK  189  A    between atoms: _462  and  _463
REMARK  190  A    between atoms: _466  and  _468
REMARK  191  A    between atoms: _468  and  _469
REMARK  192  A    between atoms: _468  and  _471
REMARK  193  A    between atoms: _471  and  _472
REMARK  194  A    between atoms: _477  and  _478
REMARK  195  A    between atoms: _480  and  _482
REMARK  196  A    between atoms: _482  and  _483
REMARK  197  A    between atoms: _482  and  _485
REMARK  198  A    between atoms: _485  and  _486
REMARK  199  A    between atoms: _486  and  _487
REMARK  200  A    between atoms: _490  and  _492
REMARK  201  A    between atoms: _492  and  _493
REMARK  202  A    between atoms: _495  and  _497
REMARK  203  A    between atoms: _497  and  _498
REMARK  204  A    between atoms: _497  and  _500
REMARK  205  A    between atoms: _500  and  _501
REMARK  206  A    between atoms: _504  and  _506
REMARK  207  A    between atoms: _506  and  _507
REMARK  208  A    between atoms: _506  and  _509
REMARK  209  A    between atoms: _509  and  _510
REMARK  210  A    between atoms: _513  and  _515
REMARK  211  A    between atoms: _515  and  _516
REMARK  212  A    between atoms: _515  and  _518
REMARK  213  A    between atoms: _518  and  _519
REMARK  214  A    between atoms: _519  and  _520
REMARK  215  A    between atoms: _520  and  _521
REMARK  216  A    between atoms: _530  and  _532
REMARK  217  A    between atoms: _532  and  _533
REMARK  218  A    between atoms: _532  and  _535
REMARK  219  A    between atoms: _535  and  _536
REMARK  220  A    between atoms: _539  and  _541
REMARK  221  A    between atoms: _541  and  _542
REMARK  222  A    between atoms: _541  and  _544
REMARK  223  A    between atoms: _544  and  _545
REMARK  224  A    between atoms: _551  and  _553
REMARK  225  A    between atoms: _553  and  _554
REMARK  226  A    between atoms: _553  and  _556
REMARK  227  A    between atoms: _556  and  _557
REMARK  228  A    between atoms: _562  and  _564
REMARK  229  A    between atoms: _564  and  _565
REMARK  230  A    between atoms: _564  and  _567
REMARK  231  A    between atoms: _567  and  _568
REMARK  232  A    between atoms: _571  and  _573
REMARK  233  A    between atoms: _573  and  _574
REMARK  234  A    between atoms: _573  and  _576
REMARK  235  A    between atoms: _576  and  _577
REMARK  236  A    between atoms: _582  and  _583
REMARK                            x       y       z     vdW  Elec       q    Type
REMARK                         _______ _______ _______ _____ _____    ______ ____
ROOT
ATOM      1  O   HOH     1      25.345   1.351   1.201  0.00  0.00    +0.000 OA
ENDROOT
TORSDOF 0
REMARK  Name = ../refined-set-2016/4h75/4h75_pocket.pdb
REMARK  236 active torsions:
REMARK  status: ('A' for Active; 'I' for Inactive)
REMARK    1  A    between atoms: _1  and  _3
REMARK    2  A    between atoms: _3  and  _4
REMARK    3  A    between atoms: _3  and  _6
REMARK    4  A    between atoms: _6  and  _7
REMARK    5  A    between atoms: _17  and  _19
REMARK    6  A    between atoms: _19  and  _20
REMARK    7  A    between atoms: _19  and  _22
REMARK    8  A    between atoms: _22  and  _23
REMARK    9  A    between atoms: _23  and  _24
REMARK   10  A    between atoms: _24  and  _25
REMARK   11  A    between atoms: _25  and  _26
REMARK   12  A    between atoms: _30  and  _32
REMARK   13  A    between atoms: _32  and  _33
REMARK   14  A    between atoms: _32  and  _35
REMARK   15  A    between atoms: _35  and  _36
REMARK   16  A    between atoms: _41  and  _42
REMARK   17  A    between atoms: _44  and  _46
REMARK   18  A    between atoms: _46  and  _47
REMARK   19  A    between atoms: _46  and  _49
REMARK   20  A    between atoms: _49  and  _50
REMARK   21  A    between atoms: _53  and  _55
REMARK   22  A    between atoms: _55  and  _56
REMARK   23  A    between atoms: _58  and  _60
REMARK   24  A    between atoms: _60  and  _61
REMARK   25  A    between atoms: _60  and  _63
REMARK   26  A    between atoms: _63  and  _64
REMARK   27  A    between atoms: _70  and  _72
REMARK   28  A    between atoms: _72  and  _73
REMARK   29  A    between atoms: _72  and  _75
REMARK   30  A    between atoms: _75  and  _76
REMARK   31  A    between atoms: _79  and  _81
REMARK   32  A    between atoms: _81  and  _82
REMARK   33  A    between atoms: _81  and  _84
REMARK   34  A    between atoms: _86  and  _88
REMARK   35  A    between atoms: _88  and  _89
REMARK   36  A    between atoms: _88  and  _91
REMARK   37  A    between atoms: _94  and  _96
REMARK   38  A    between atoms: _96  and  _97
REMARK   39  A    between atoms: _96  and  _99
REMARK   40  A    between atoms: _99  and  _100
REMARK   41  A    between atoms: _105  and  _106
REMARK   42  A    between atoms: _108  and  _110
REMARK   43  A    between atoms: _110  and  _111
REMARK   44  A    between atoms: _110  and  _113
REMARK   45  A    between atoms: _113  and  _114
REMARK   46  A    between atoms: _119  and  _121
REMARK   47  A    between atoms: _121  and  _122
REMARK   48  A    between atoms: _121  and  _124
REMARK   49  A    between atoms: _124  and  _125
REMARK   50  A    between atoms: _125  and  _126
REMARK   51  A    between atoms: _128  and  _130
REMARK   52  A    between atoms: _130  and  _131
REMARK   53  A    between atoms: _130  and  _133
REMARK   54  A    between atoms: _133  and  _134
REMARK   55  A    between atoms: _140  and  _142
REMARK   56  A    between atoms: _142  and  _143
REMARK   57  A    between atoms: _142  and  _145
REMARK   58  A    between atoms: _145  and  _146
REMARK   59  A    between atoms: _146  and  _147
REMARK   60  A    between atoms: _150  and  _152
REMARK   61  A    between atoms: _152  and  _153
REMARK   62  A    between atoms: _152  and  _155
REMARK   63  A    between atoms: _155  and  _156
REMARK   64  A    between atoms: _159  and  _161
REMARK   65  A    between atoms: _161  and  _162
REMARK   66  A    between atoms: _161  and  _164
REMARK   67  A    between atoms: _164  and  _165
REMARK   68  A    between atoms: _165  and  _166
REMARK   69  A    between atoms: _169  and  _171
REMARK   70  A    between atoms: _171  and  _172
REMARK   71  A    between atoms: _171  and  _174
REMARK   72  A    between atoms: _174  and  _175
REMARK   73  A    between atoms: _178  and  _180
REMARK   74  A    between atoms: _180  and  _181
REMARK   75  A    between atoms: _183  and  _185
REMARK   76  A    between atoms: _185  and  _186
REMARK   77  A    between atoms: _185  and  _188
REMARK   78  A    between atoms: _188  and  _189
REMARK   79  A    between atoms: _191  and  _193
REMARK   80  A    between atoms: _193  and  _194
REMARK   81  A    between atoms: _193  and  _196
REMARK   82  A    between atoms: _196  and  _197
REMARK   83  A    between atoms: _197  and  _198
REMARK   84  A    between atoms: _198  and  _199
REMARK   85  A    between atoms: _199  and  _200
REMARK   86  A    between atoms: _204  and  _206
REMARK   87  A    between atoms: _206  and  _207
REMARK   88  A    between atoms: _206  and  _209
REMARK   89  A    between atoms: _209  and  _210
REMARK   90  A    between atoms: _213  and  _215
REMARK   91  A    between atoms: _215  and  _216
REMARK   92  A    between atoms: _215  and  _218
REMARK   93  A    between atoms: _218  and  _219
REMARK   94  A    between atoms: _219  and  _220
REMARK   95  A    between atoms: _223  and  _225
REMARK   96  A    between atoms: _225  and  _226
REMARK   97  A    between atoms: _225  and  _228
REMARK   98  A    between atoms: _228  and  _229
REMARK   99  A    between atoms: _239  and  _241
REMARK  100  A    between atoms: _241  and  _242
REMARK  101  A    between atoms: _241  and  _244
REMARK  102  A    between atoms: _244  and  _245
REMARK  103  A    between atoms: _245  and  _246
REMARK  104  A    between atoms: _246  and  _247
REMARK  105  A    between atoms: _256  and  _258
REMARK  106  A    between atoms: _258  and  _259
REMARK  107  A    between atoms: _258  and  _261
REMARK  108  A    between atoms: _261  and  _262
REMARK  109  A    between atoms: _265  and  _267
REMARK  110  A    between atoms: _267  and  _268
REMARK  111  A    between atoms: _267  and  _270
REMARK  112  A    between atoms: _270  and  _271
REMARK  113  A    between atoms: _281  and  _283
REMARK  114  A    between atoms: _283  and  _284
REMARK  115  A    between atoms: _283  and  _286
REMARK  116  A    between atoms: _286  and  _287
REMARK  117  A    between atoms: _293  and  _295
REMARK  118  A    between atoms: _295  and  _296
REMARK  119  A    between atoms: _295  and  _298
REMARK  120  A    between atoms: _298  and  _299
REMARK  121  A    between atoms: _302  and  _304
REMARK  122  A    between atoms: _304  and  _305
REMARK  123  A    between atoms: _304  and  _307
REMARK  124  A    between atoms: _307  and  _308
REMARK  125  A    between atoms: _311  and  _313
REMARK  126  A    between atoms: _313  and  _314
REMARK  127  A    between atoms: _313  and  _316
REMARK  128  A    between atoms: _316  and  _317
REMARK  129  A    between atoms: _322  and  _323
REMARK  130  A    between atoms: _325  and  _327
REMARK  131  A    between atoms: _327  and  _328
REMARK  132  A    between atoms: _327  and  _330
REMARK  133  A    between atoms: _330  and  _331
REMARK  134  A    between atoms: _331  and  _332
REMARK  135  A    between atoms: _335  and  _337
REMARK  136  A    between atoms: _337  and  _338
REMARK  137  A    between atoms: _337  and  _340
REMARK  138  A    between atoms: _340  and  _341
REMARK  139  A    between atoms: _341  and  _342
REMARK  140  A    between atoms: _342  and  _343
REMARK  141  A    between atoms: _343  and  _344
REMARK  142  A    between atoms: _348  and  _350
REMARK  143  A    between atoms: _350  and  _351
REMARK  144  A    between atoms: _350  and  _353
REMARK  145  A    between atoms: _353  and  _354
REMARK  146  A    between atoms: _358  and  _359
REMARK  147  A    between atoms: _364  and  _366
REMARK  148  A    between atoms: _366  and  _367
REMARK  149  A    between atoms: _366  and  _369
REMARK  150  A    between atoms: _372  and  _374
REMARK  151  A    between atoms: _374  and  _375
REMARK  152  A    between atoms: _374  and  _377
REMARK  153  A    between atoms: _377  and  _378
REMARK  154  A    between atoms: _381  and  _383
REMARK  155  A    between atoms: _383  and  _384
REMARK  156  A    between atoms: _383  and  _386
REMARK  157  A    between atoms: _386  and  _387
REMARK  158  A    between atoms: _392  and  _393
REMARK  159  A    between atoms: _395  and  _397
REMARK  160  A    between atoms: _397  and  _398
REMARK  161  A    between atoms: _397  and  _400
REMARK  162  A    between atoms: _400  and  _401
REMARK  163  A    between atoms: _401  and  _402
REMARK  164  A    between atoms: _404  and  _406
REMARK  165  A    between atoms: _406  and  _407
REMARK  166  A    between atoms: _406  and  _409
REMARK  167  A    between atoms: _409  and  _410
REMARK  168  A    between atoms: _415  and  _416
REMARK  169  A    between atoms: _418  and  _420
REMARK  170  A    between atoms: _420  and  _421
REMARK  171  A    between atoms: _420  and  _423
REMARK  172  A    between atoms: _423  and  _424
REMARK  173  A    between atoms: _424  and  _425
REMARK  174  A    between atoms: _430  and  _432
REMARK  175  A    between atoms: _432  and  _433
REMARK  176  A    between atoms: _432  and  _435
REMARK  177  A    between atoms: _435  and  _436
REMARK  178  A    between atoms: _439  and  _441
REMARK  179  A    between atoms: _441  and  _442
REMARK  180  A    between atoms: _441  and  _444
REMARK  181  A    between atoms: _444  and  _445
REMARK  182  A    between atoms: _448  and  _450
REMARK  183  A    between atoms: _450  and  _451
REMARK  184  A    between atoms: _450  and  _453
REMARK  185  A    between atoms: _453  and  _454
REMARK  186  A    between atoms: _457  and  _459
REMARK  187  A    between atoms: _459  and  _460
REMARK  188  A    between atoms: _459  and  _462
REMARK  189  A    between atoms: _462  and  _463
REMARK  190  A    between atoms: _466  and  _468
REMARK  191  A    between atoms: _468  and  _469
REMARK  192  A    between atoms: _468  and  _471
REMARK  193  A    between atoms: _471  and  _472
REMARK  194  A    between atoms: _477  and  _478
REMARK  195  A    between atoms: _480  and  _482
REMARK  196  A    between atoms: _482  and  _483
REMARK  197  A    between atoms: _482  and  _485
REMARK  198  A    between atoms: _485  and  _486
REMARK  199  A    between atoms: _486  and  _487
REMARK  200  A    between atoms: _490  and  _492
REMARK  201  A    between atoms: _492  and  _493
REMARK  202  A    between atoms: _495  and  _497
REMARK  203  A    between atoms: _497  and  _498
REMARK  204  A    between atoms: _497  and  _500
REMARK  205  A    between atoms: _500  and  _501
REMARK  206  A    between atoms: _504  and  _506
REMARK  207  A    between atoms: _506  and  _507
REMARK  208  A    between atoms: _506  and  _509
REMARK  209  A    between atoms: _509  and  _510
REMARK  210  A    between atoms: _513  and  _515
REMARK  211  A    between atoms: _515  and  _516
REMARK  212  A    between atoms: _515  and  _518
REMARK  213  A    between atoms: _518  and  _519
REMARK  214  A    between atoms: _519  and  _520
REMARK  215  A    between atoms: _520  and  _521
REMARK  216  A    between atoms: _530  and  _532
REMARK  217  A    between atoms: _532  and  _533
REMARK  218  A    between atoms: _532  and  _535
REMARK  219  A    between atoms: _535  and  _536
REMARK  220  A    between atoms: _539  and  _541
REMARK  221  A    between atoms: _541  and  _542
REMARK  222  A    between atoms: _541  and  _544
REMARK  223  A    between atoms: _544  and  _545
REMARK  224  A    between atoms: _551  and  _553
REMARK  225  A    between atoms: _553  and  _554
REMARK  226  A    between atoms: _553  and  _556
REMARK  227  A    between atoms: _556  and  _557
REMARK  228  A    between atoms: _562  and  _564
REMARK  229  A    between atoms: _564  and  _565
REMARK  230  A    between atoms: _564  and  _567
REMARK  231  A    between atoms: _567  and  _568
REMARK  232  A    between atoms: _571  and  _573
REMARK  233  A    between atoms: _573  and  _574
REMARK  234  A    between atoms: _573  and  _576
REMARK  235  A    between atoms: _576  and  _577
REMARK  236  A    between atoms: _582  and  _583
REMARK                            x       y       z     vdW  Elec       q    Type
REMARK                         _______ _______ _______ _____ _____    ______ ____
ROOT
ATOM      1  O   HOH     1      25.398  -0.371   2.639  0.00  0.00    +0.000 OA
ENDROOT
TORSDOF 0
REMARK  Name = ../refined-set-2016/4h75/4h75_pocket.pdb
REMARK  236 active torsions:
REMARK  status: ('A' for Active; 'I' for Inactive)
REMARK    1  A    between atoms: _1  and  _3
REMARK    2  A    between atoms: _3  and  _4
REMARK    3  A    between atoms: _3  and  _6
REMARK    4  A    between atoms: _6  and  _7
REMARK    5  A    between atoms: _17  and  _19
REMARK    6  A    between atoms: _19  and  _20
REMARK    7  A    between atoms: _19  and  _22
REMARK    8  A    between atoms: _22  and  _23
REMARK    9  A    between atoms: _23  and  _24
REMARK   10  A    between atoms: _24  and  _25
REMARK   11  A    between atoms: _25  and  _26
REMARK   12  A    between atoms: _30  and  _32
REMARK   13  A    between atoms: _32  and  _33
REMARK   14  A    between atoms: _32  and  _35
REMARK   15  A    between atoms: _35  and  _36
REMARK   16  A    between atoms: _41  and  _42
REMARK   17  A    between atoms: _44  and  _46
REMARK   18  A    between atoms: _46  and  _47
REMARK   19  A    between atoms: _46  and  _49
REMARK   20  A    between atoms: _49  and  _50
REMARK   21  A    between atoms: _53  and  _55
REMARK   22  A    between atoms: _55  and  _56
REMARK   23  A    between atoms: _58  and  _60
REMARK   24  A    between atoms: _60  and  _61
REMARK   25  A    between atoms: _60  and  _63
REMARK   26  A    between atoms: _63  and  _64
REMARK   27  A    between atoms: _70  and  _72
REMARK   28  A    between atoms: _72  and  _73
REMARK   29  A    between atoms: _72  and  _75
REMARK   30  A    between atoms: _75  and  _76
REMARK   31  A    between atoms: _79  and  _81
REMARK   32  A    between atoms: _81  and  _82
REMARK   33  A    between atoms: _81  and  _84
REMARK   34  A    between atoms: _86  and  _88
REMARK   35  A    between atoms: _88  and  _89
REMARK   36  A    between atoms: _88  and  _91
REMARK   37  A    between atoms: _94  and  _96
REMARK   38  A    between atoms: _96  and  _97
REMARK   39  A    between atoms: _96  and  _99
REMARK   40  A    between atoms: _99  and  _100
REMARK   41  A    between atoms: _105  and  _106
REMARK   42  A    between atoms: _108  and  _110
REMARK   43  A    between atoms: _110  and  _111
REMARK   44  A    between atoms: _110  and  _113
REMARK   45  A    between atoms: _113  and  _114
REMARK   46  A    between atoms: _119  and  _121
REMARK   47  A    between atoms: _121  and  _122
REMARK   48  A    between atoms: _121  and  _124
REMARK   49  A    between atoms: _124  and  _125
REMARK   50  A    between atoms: _125  and  _126
REMARK   51  A    between atoms: _128  and  _130
REMARK   52  A    between atoms: _130  and  _131
REMARK   53  A    between atoms: _130  and  _133
REMARK   54  A    between atoms: _133  and  _134
REMARK   55  A    between atoms: _140  and  _142
REMARK   56  A    between atoms: _142  and  _143
REMARK   57  A    between atoms: _142  and  _145
REMARK   58  A    between atoms: _145  and  _146
REMARK   59  A    between atoms: _146  and  _147
REMARK   60  A    between atoms: _150  and  _152
REMARK   61  A    between atoms: _152  and  _153
REMARK   62  A    between atoms: _152  and  _155
REMARK   63  A    between atoms: _155  and  _156
REMARK   64  A    between atoms: _159  and  _161
REMARK   65  A    between atoms: _161  and  _162
REMARK   66  A    between atoms: _161  and  _164
REMARK   67  A    between atoms: _164  and  _165
REMARK   68  A    between atoms: _165  and  _166
REMARK   69  A    between atoms: _169  and  _171
REMARK   70  A    between atoms: _171  and  _172
REMARK   71  A    between atoms: _171  and  _174
REMARK   72  A    between atoms: _174  and  _175
REMARK   73  A    between atoms: _178  and  _180
REMARK   74  A    between atoms: _180  and  _181
REMARK   75  A    between atoms: _183  and  _185
REMARK   76  A    between atoms: _185  and  _186
REMARK   77  A    between atoms: _185  and  _188
REMARK   78  A    between atoms: _188  and  _189
REMARK   79  A    between atoms: _191  and  _193
REMARK   80  A    between atoms: _193  and  _194
REMARK   81  A    between atoms: _193  and  _196
REMARK   82  A    between atoms: _196  and  _197
REMARK   83  A    between atoms: _197  and  _198
REMARK   84  A    between atoms: _198  and  _199
REMARK   85  A    between atoms: _199  and  _200
REMARK   86  A    between atoms: _204  and  _206
REMARK   87  A    between atoms: _206  and  _207
REMARK   88  A    between atoms: _206  and  _209
REMARK   89  A    between atoms: _209  and  _210
REMARK   90  A    between atoms: _213  and  _215
REMARK   91  A    between atoms: _215  and  _216
REMARK   92  A    between atoms: _215  and  _218
REMARK   93  A    between atoms: _218  and  _219
REMARK   94  A    between atoms: _219  and  _220
REMARK   95  A    between atoms: _223  and  _225
REMARK   96  A    between atoms: _225  and  _226
REMARK   97  A    between atoms: _225  and  _228
REMARK   98  A    between atoms: _228  and  _229
REMARK   99  A    between atoms: _239  and  _241
REMARK  100  A    between atoms: _241  and  _242
REMARK  101  A    between atoms: _241  and  _244
REMARK  102  A    between atoms: _244  and  _245
REMARK  103  A    between atoms: _245  and  _246
REMARK  104  A    between atoms: _246  and  _247
REMARK  105  A    between atoms: _256  and  _258
REMARK  106  A    between atoms: _258  and  _259
REMARK  107  A    between atoms: _258  and  _261
REMARK  108  A    between atoms: _261  and  _262
REMARK  109  A    between atoms: _265  and  _267
REMARK  110  A    between atoms: _267  and  _268
REMARK  111  A    between atoms: _267  and  _270
REMARK  112  A    between atoms: _270  and  _271
REMARK  113  A    between atoms: _281  and  _283
REMARK  114  A    between atoms: _283  and  _284
REMARK  115  A    between atoms: _283  and  _286
REMARK  116  A    between atoms: _286  and  _287
REMARK  117  A    between atoms: _293  and  _295
REMARK  118  A    between atoms: _295  and  _296
REMARK  119  A    between atoms: _295  and  _298
REMARK  120  A    between atoms: _298  and  _299
REMARK  121  A    between atoms: _302  and  _304
REMARK  122  A    between atoms: _304  and  _305
REMARK  123  A    between atoms: _304  and  _307
REMARK  124  A    between atoms: _307  and  _308
REMARK  125  A    between atoms: _311  and  _313
REMARK  126  A    between atoms: _313  and  _314
REMARK  127  A    between atoms: _313  and  _316
REMARK  128  A    between atoms: _316  and  _317
REMARK  129  A    between atoms: _322  and  _323
REMARK  130  A    between atoms: _325  and  _327
REMARK  131  A    between atoms: _327  and  _328
REMARK  132  A    between atoms: _327  and  _330
REMARK  133  A    between atoms: _330  and  _331
REMARK  134  A    between atoms: _331  and  _332
REMARK  135  A    between atoms: _335  and  _337
REMARK  136  A    between atoms: _337  and  _338
REMARK  137  A    between atoms: _337  and  _340
REMARK  138  A    between atoms: _340  and  _341
REMARK  139  A    between atoms: _341  and  _342
REMARK  140  A    between atoms: _342  and  _343
REMARK  141  A    between atoms: _343  and  _344
REMARK  142  A    between atoms: _348  and  _350
REMARK  143  A    between atoms: _350  and  _351
REMARK  144  A    between atoms: _350  and  _353
REMARK  145  A    between atoms: _353  and  _354
REMARK  146  A    between atoms: _358  and  _359
REMARK  147  A    between atoms: _364  and  _366
REMARK  148  A    between atoms: _366  and  _367
REMARK  149  A    between atoms: _366  and  _369
REMARK  150  A    between atoms: _372  and  _374
REMARK  151  A    between atoms: _374  and  _375
REMARK  152  A    between atoms: _374  and  _377
REMARK  153  A    between atoms: _377  and  _378
REMARK  154  A    between atoms: _381  and  _383
REMARK  155  A    between atoms: _383  and  _384
REMARK  156  A    between atoms: _383  and  _386
REMARK  157  A    between atoms: _386  and  _387
REMARK  158  A    between atoms: _392  and  _393
REMARK  159  A    between atoms: _395  and  _397
REMARK  160  A    between atoms: _397  and  _398
REMARK  161  A    between atoms: _397  and  _400
REMARK  162  A    between atoms: _400  and  _401
REMARK  163  A    between atoms: _401  and  _402
REMARK  164  A    between atoms: _404  and  _406
REMARK  165  A    between atoms: _406  and  _407
REMARK  166  A    between atoms: _406  and  _409
REMARK  167  A    between atoms: _409  and  _410
REMARK  168  A    between atoms: _415  and  _416
REMARK  169  A    between atoms: _418  and  _420
REMARK  170  A    between atoms: _420  and  _421
REMARK  171  A    between atoms: _420  and  _423
REMARK  172  A    between atoms: _423  and  _424
REMARK  173  A    between atoms: _424  and  _425
REMARK  174  A    between atoms: _430  and  _432
REMARK  175  A    between atoms: _432  and  _433
REMARK  176  A    between atoms: _432  and  _435
REMARK  177  A    between atoms: _435  and  _436
REMARK  178  A    between atoms: _439  and  _441
REMARK  179  A    between atoms: _441  and  _442
REMARK  180  A    between atoms: _441  and  _444
REMARK  181  A    between atoms: _444  and  _445
REMARK  182  A    between atoms: _448  and  _450
REMARK  183  A    between atoms: _450  and  _451
REMARK  184  A    between atoms: _450  and  _453
REMARK  185  A    between atoms: _453  and  _454
REMARK  186  A    between atoms: _457  and  _459
REMARK  187  A    between atoms: _459  and  _460
REMARK  188  A    between atoms: _459  and  _462
REMARK  189  A    between atoms: _462  and  _463
REMARK  190  A    between atoms: _466  and  _468
REMARK  191  A    between atoms: _468  and  _469
REMARK  192  A    between atoms: _468  and  _471
REMARK  193  A    between atoms: _471  and  _472
REMARK  194  A    between atoms: _477  and  _478
REMARK  195  A    between atoms: _480  and  _482
REMARK  196  A    between atoms: _482  and  _483
REMARK  197  A    between atoms: _482  and  _485
REMARK  198  A    between atoms: _485  and  _486
REMARK  199  A    between atoms: _486  and  _487
REMARK  200  A    between atoms: _490  and  _492
REMARK  201  A    between atoms: _492  and  _493
REMARK  202  A    between atoms: _495  and  _497
REMARK  203  A    between atoms: _497  and  _498
REMARK  204  A    between atoms: _497  and  _500
REMARK  205  A    between atoms: _500  and  _501
REMARK  206  A    between atoms: _504  and  _506
REMARK  207  A    between atoms: _506  and  _507
REMARK  208  A    between atoms: _506  and  _509
REMARK  209  A    between atoms: _509  and  _510
REMARK  210  A    between atoms: _513  and  _515
REMARK  211  A    between atoms: _515  and  _516
REMARK  212  A    between atoms: _515  and  _518
REMARK  213  A    between atoms: _518  and  _519
REMARK  214  A    between atoms: _519  and  _520
REMARK  215  A    between atoms: _520  and  _521
REMARK  216  A    between atoms: _530  and  _532
REMARK  217  A    between atoms: _532  and  _533
REMARK  218  A    between atoms: _532  and  _535
REMARK  219  A    between atoms: _535  and  _536
REMARK  220  A    between atoms: _539  and  _541
REMARK  221  A    between atoms: _541  and  _542
REMARK  222  A    between atoms: _541  and  _544
REMARK  223  A    between atoms: _544  and  _545
REMARK  224  A    between atoms: _551  and  _553
REMARK  225  A    between atoms: _553  and  _554
REMARK  226  A    between atoms: _553  and  _556
REMARK  227  A    between atoms: _556  and  _557
REMARK  228  A    between atoms: _562  and  _564
REMARK  229  A    between atoms: _564  and  _565
REMARK  230  A    between atoms: _564  and  _567
REMARK  231  A    between atoms: _567  and  _568
REMARK  232  A    between atoms: _571  and  _573
REMARK  233  A    between atoms: _573  and  _574
REMARK  234  A    between atoms: _573  and  _576
REMARK  235  A    between atoms: _576  and  _577
REMARK  236  A    between atoms: _582  and  _583
REMARK                            x       y       z     vdW  Elec       q    Type
REMARK                         _______ _______ _______ _____ _____    ______ ____
ROOT
ATOM      1  O   HOH     1      27.779  -0.650   1.818  0.00  0.00    +0.000 OA
ENDROOT
TORSDOF 0
