REMARK  Name = ../refined-set-2016/4omk/4omk_pocket.pdb
REMARK  318 active torsions:
REMARK  status: ('A' for Active; 'I' for Inactive)
REMARK    1  A    between atoms: _1  and  _3
REMARK    2  A    between atoms: _3  and  _4
REMARK    3  A    between atoms: _3  and  _6
REMARK    4  A    between atoms: _6  and  _7
REMARK    5  A    between atoms: _10  and  _12
REMARK    6  A    between atoms: _12  and  _13
REMARK    7  A    between atoms: _12  and  _15
REMARK    8  A    between atoms: _15  and  _16
REMARK    9  A    between atoms: _21  and  _22
REMARK   10  A    between atoms: _24  and  _26
REMARK   11  A    between atoms: _26  and  _27
REMARK   12  A    between atoms: _26  and  _29
REMARK   13  A    between atoms: _29  and  _30
REMARK   14  A    between atoms: _33  and  _35
REMARK   15  A    between atoms: _35  and  _36
REMARK   16  A    between atoms: _35  and  _38
REMARK   17  A    between atoms: _38  and  _39
REMARK   18  A    between atoms: _41  and  _43
REMARK   19  A    between atoms: _43  and  _44
REMARK   20  A    between atoms: _43  and  _46
REMARK   21  A    between atoms: _46  and  _47
REMARK   22  A    between atoms: _57  and  _59
REMARK   23  A    between atoms: _59  and  _60
REMARK   24  A    between atoms: _59  and  _62
REMARK   25  A    between atoms: _62  and  _63
REMARK   26  A    between atoms: _66  and  _68
REMARK   27  A    between atoms: _68  and  _69
REMARK   28  A    between atoms: _68  and  _71
REMARK   29  A    between atoms: _71  and  _72
REMARK   30  A    between atoms: _75  and  _77
REMARK   31  A    between atoms: _77  and  _78
REMARK   32  A    between atoms: _77  and  _80
REMARK   33  A    between atoms: _80  and  _81
REMARK   34  A    between atoms: _84  and  _86
REMARK   35  A    between atoms: _86  and  _87
REMARK   36  A    between atoms: _86  and  _89
REMARK   37  A    between atoms: _89  and  _90
REMARK   38  A    between atoms: _93  and  _95
REMARK   39  A    between atoms: _95  and  _96
REMARK   40  A    between atoms: _99  and  _101
REMARK   41  A    between atoms: _101  and  _102
REMARK   42  A    between atoms: _101  and  _104
REMARK   43  A    between atoms: _104  and  _105
REMARK   44  A    between atoms: _105  and  _106
REMARK   45  A    between atoms: _106  and  _107
REMARK   46  A    between atoms: _107  and  _108
REMARK   47  A    between atoms: _112  and  _114
REMARK   48  A    between atoms: _114  and  _115
REMARK   49  A    between atoms: _117  and  _119
REMARK   50  A    between atoms: _119  and  _120
REMARK   51  A    between atoms: _119  and  _122
REMARK   52  A    between atoms: _122  and  _123
REMARK   53  A    between atoms: _126  and  _128
REMARK   54  A    between atoms: _128  and  _129
REMARK   55  A    between atoms: _128  and  _131
REMARK   56  A    between atoms: _131  and  _132
REMARK   57  A    between atoms: _135  and  _137
REMARK   58  A    between atoms: _137  and  _138
REMARK   59  A    between atoms: _137  and  _140
REMARK   60  A    between atoms: _140  and  _141
REMARK   61  A    between atoms: _147  and  _149
REMARK   62  A    between atoms: _149  and  _150
REMARK   63  A    between atoms: _149  and  _152
REMARK   64  A    between atoms: _152  and  _153
REMARK   65  A    between atoms: _155  and  _157
REMARK   66  A    between atoms: _157  and  _158
REMARK   67  A    between atoms: _157  and  _160
REMARK   68  A    between atoms: _160  and  _161
REMARK   69  A    between atoms: _161  and  _162
REMARK   70  A    between atoms: _162  and  _163
REMARK   71  A    between atoms: _163  and  _164
REMARK   72  A    between atoms: _168  and  _170
REMARK   73  A    between atoms: _170  and  _171
REMARK   74  A    between atoms: _170  and  _173
REMARK   75  A    between atoms: _173  and  _174
REMARK   76  A    between atoms: _174  and  _175
REMARK   77  A    between atoms: _180  and  _182
REMARK   78  A    between atoms: _182  and  _183
REMARK   79  A    between atoms: _182  and  _185
REMARK   80  A    between atoms: _185  and  _186
REMARK   81  A    between atoms: _189  and  _191
REMARK   82  A    between atoms: _191  and  _192
REMARK   83  A    between atoms: _191  and  _194
REMARK   84  A    between atoms: _194  and  _195
REMARK   85  A    between atoms: _198  and  _200
REMARK   86  A    between atoms: _200  and  _201
REMARK   87  A    between atoms: _200  and  _203
REMARK   88  A    between atoms: _203  and  _204
REMARK   89  A    between atoms: _207  and  _209
REMARK   90  A    between atoms: _209  and  _210
REMARK   91  A    between atoms: _209  and  _212
REMARK   92  A    between atoms: _212  and  _213
REMARK   93  A    between atoms: _213  and  _214
REMARK   94  A    between atoms: _214  and  _215
REMARK   95  A    between atoms: _224  and  _226
REMARK   96  A    between atoms: _226  and  _227
REMARK   97  A    between atoms: _226  and  _229
REMARK   98  A    between atoms: _229  and  _230
REMARK   99  A    between atoms: _233  and  _235
REMARK  100  A    between atoms: _235  and  _236
REMARK  101  A    between atoms: _235  and  _238
REMARK  102  A    between atoms: _238  and  _239
REMARK  103  A    between atoms: _239  and  _240
REMARK  104  A    between atoms: _240  and  _241
REMARK  105  A    between atoms: _241  and  _242
REMARK  106  A    between atoms: _246  and  _248
REMARK  107  A    between atoms: _248  and  _249
REMARK  108  A    between atoms: _248  and  _251
REMARK  109  A    between atoms: _251  and  _252
REMARK  110  A    between atoms: _252  and  _253
REMARK  111  A    between atoms: _255  and  _257
REMARK  112  A    between atoms: _257  and  _258
REMARK  113  A    between atoms: _257  and  _260
REMARK  114  A    between atoms: _260  and  _261
REMARK  115  A    between atoms: _261  and  _262
REMARK  116  A    between atoms: _265  and  _267
REMARK  117  A    between atoms: _267  and  _268
REMARK  118  A    between atoms: _267  and  _270
REMARK  119  A    between atoms: _272  and  _274
REMARK  120  A    between atoms: _274  and  _275
REMARK  121  A    between atoms: _274  and  _277
REMARK  122  A    between atoms: _277  and  _278
REMARK  123  A    between atoms: _281  and  _283
REMARK  124  A    between atoms: _283  and  _284
REMARK  125  A    between atoms: _283  and  _286
REMARK  126  A    between atoms: _286  and  _287
REMARK  127  A    between atoms: _290  and  _292
REMARK  128  A    between atoms: _292  and  _293
REMARK  129  A    between atoms: _292  and  _295
REMARK  130  A    between atoms: _295  and  _296
REMARK  131  A    between atoms: _301  and  _302
REMARK  132  A    between atoms: _304  and  _306
REMARK  133  A    between atoms: _306  and  _307
REMARK  134  A    between atoms: _306  and  _309
REMARK  135  A    between atoms: _309  and  _310
REMARK  136  A    between atoms: _313  and  _315
REMARK  137  A    between atoms: _315  and  _316
REMARK  138  A    between atoms: _315  and  _318
REMARK  139  A    between atoms: _320  and  _322
REMARK  140  A    between atoms: _322  and  _323
REMARK  141  A    between atoms: _322  and  _325
REMARK  142  A    between atoms: _325  and  _326
REMARK  143  A    between atoms: _329  and  _331
REMARK  144  A    between atoms: _331  and  _332
REMARK  145  A    between atoms: _334  and  _336
REMARK  146  A    between atoms: _336  and  _337
REMARK  147  A    between atoms: _336  and  _339
REMARK  148  A    between atoms: _339  and  _340
REMARK  149  A    between atoms: _340  and  _341
REMARK  150  A    between atoms: _341  and  _342
REMARK  151  A    between atoms: _342  and  _343
REMARK  152  A    between atoms: _347  and  _349
REMARK  153  A    between atoms: _349  and  _350
REMARK  154  A    between atoms: _349  and  _352
REMARK  155  A    between atoms: _352  and  _353
REMARK  156  A    between atoms: _358  and  _360
REMARK  157  A    between atoms: _360  and  _361
REMARK  158  A    between atoms: _360  and  _363
REMARK  159  A    between atoms: _363  and  _364
REMARK  160  A    between atoms: _367  and  _369
REMARK  161  A    between atoms: _369  and  _370
REMARK  162  A    between atoms: _369  and  _372
REMARK  163  A    between atoms: _372  and  _373
REMARK  164  A    between atoms: _383  and  _385
REMARK  165  A    between atoms: _385  and  _386
REMARK  166  A    between atoms: _385  and  _388
REMARK  167  A    between atoms: _388  and  _389
REMARK  168  A    between atoms: _389  and  _390
REMARK  169  A    between atoms: _390  and  _391
REMARK  170  A    between atoms: _391  and  _392
REMARK  171  A    between atoms: _397  and  _398
REMARK  172  A    between atoms: _403  and  _405
REMARK  173  A    between atoms: _405  and  _406
REMARK  174  A    between atoms: _409  and  _411
REMARK  175  A    between atoms: _411  and  _412
REMARK  176  A    between atoms: _411  and  _414
REMARK  177  A    between atoms: _417  and  _419
REMARK  178  A    between atoms: _419  and  _420
REMARK  179  A    between atoms: _419  and  _422
REMARK  180  A    between atoms: _422  and  _423
REMARK  181  A    between atoms: _423  and  _424
REMARK  182  A    between atoms: _427  and  _429
REMARK  183  A    between atoms: _429  and  _430
REMARK  184  A    between atoms: _433  and  _435
REMARK  185  A    between atoms: _435  and  _436
REMARK  186  A    between atoms: _435  and  _438
REMARK  187  A    between atoms: _438  and  _439
REMARK  188  A    between atoms: _444  and  _445
REMARK  189  A    between atoms: _447  and  _449
REMARK  190  A    between atoms: _449  and  _450
REMARK  191  A    between atoms: _452  and  _454
REMARK  192  A    between atoms: _454  and  _455
REMARK  193  A    between atoms: _454  and  _457
REMARK  194  A    between atoms: _457  and  _458
REMARK  195  A    between atoms: _458  and  _459
REMARK  196  A    between atoms: _462  and  _464
REMARK  197  A    between atoms: _464  and  _465
REMARK  198  A    between atoms: _464  and  _467
REMARK  199  A    between atoms: _467  and  _468
REMARK  200  A    between atoms: _474  and  _476
REMARK  201  A    between atoms: _476  and  _477
REMARK  202  A    between atoms: _476  and  _479
REMARK  203  A    between atoms: _479  and  _480
REMARK  204  A    between atoms: _483  and  _485
REMARK  205  A    between atoms: _485  and  _486
REMARK  206  A    between atoms: _485  and  _488
REMARK  207  A    between atoms: _488  and  _489
REMARK  208  A    between atoms: _489  and  _490
REMARK  209  A    between atoms: _492  and  _494
REMARK  210  A    between atoms: _494  and  _495
REMARK  211  A    between atoms: _494  and  _497
REMARK  212  A    between atoms: _497  and  _498
REMARK  213  A    between atoms: _504  and  _506
REMARK  214  A    between atoms: _506  and  _507
REMARK  215  A    between atoms: _506  and  _509
REMARK  216  A    between atoms: _509  and  _510
REMARK  217  A    between atoms: _510  and  _511
REMARK  218  A    between atoms: _514  and  _516
REMARK  219  A    between atoms: _516  and  _517
REMARK  220  A    between atoms: _516  and  _519
REMARK  221  A    between atoms: _519  and  _520
REMARK  222  A    between atoms: _523  and  _525
REMARK  223  A    between atoms: _525  and  _526
REMARK  224  A    between atoms: _525  and  _528
REMARK  225  A    between atoms: _528  and  _529
REMARK  226  A    between atoms: _532  and  _534
REMARK  227  A    between atoms: _534  and  _535
REMARK  228  A    between atoms: _534  and  _537
REMARK  229  A    between atoms: _537  and  _538
REMARK  230  A    between atoms: _544  and  _546
REMARK  231  A    between atoms: _546  and  _547
REMARK  232  A    between atoms: _546  and  _549
REMARK  233  A    between atoms: _552  and  _554
REMARK  234  A    between atoms: _554  and  _555
REMARK  235  A    between atoms: _559  and  _560
REMARK  236  A    between atoms: _565  and  _567
REMARK  237  A    between atoms: _567  and  _568
REMARK  238  A    between atoms: _567  and  _570
REMARK  239  A    between atoms: _570  and  _571
REMARK  240  A    between atoms: _574  and  _576
REMARK  241  A    between atoms: _576  and  _577
REMARK  242  A    between atoms: _576  and  _579
REMARK  243  A    between atoms: _579  and  _580
REMARK  244  A    between atoms: _587  and  _588
REMARK  245  A    between atoms: _593  and  _595
REMARK  246  A    between atoms: _595  and  _596
REMARK  247  A    between atoms: _595  and  _598
REMARK  248  A    between atoms: _601  and  _603
REMARK  249  A    between atoms: _603  and  _604
REMARK  250  A    between atoms: _607  and  _609
REMARK  251  A    between atoms: _609  and  _610
REMARK  252  A    between atoms: _609  and  _612
REMARK  253  A    between atoms: _612  and  _613
REMARK  254  A    between atoms: _618  and  _619
REMARK  255  A    between atoms: _621  and  _623
REMARK  256  A    between atoms: _623  and  _624
REMARK  257  A    between atoms: _623  and  _626
REMARK  258  A    between atoms: _626  and  _627
REMARK  259  A    between atoms: _632  and  _634
REMARK  260  A    between atoms: _634  and  _635
REMARK  261  A    between atoms: _634  and  _637
REMARK  262  A    between atoms: _637  and  _638
REMARK  263  A    between atoms: _641  and  _643
REMARK  264  A    between atoms: _643  and  _644
REMARK  265  A    between atoms: _643  and  _646
REMARK  266  A    between atoms: _646  and  _647
REMARK  267  A    between atoms: _650  and  _652
REMARK  268  A    between atoms: _652  and  _653
REMARK  269  A    between atoms: _652  and  _655
REMARK  270  A    between atoms: _655  and  _656
REMARK  271  A    between atoms: _656  and  _657
REMARK  272  A    between atoms: _657  and  _658
REMARK  273  A    between atoms: _658  and  _659
REMARK  274  A    between atoms: _663  and  _665
REMARK  275  A    between atoms: _665  and  _666
REMARK  276  A    between atoms: _665  and  _668
REMARK  277  A    between atoms: _668  and  _669
REMARK  278  A    between atoms: _675  and  _677
REMARK  279  A    between atoms: _677  and  _678
REMARK  280  A    between atoms: _677  and  _680
REMARK  281  A    between atoms: _680  and  _681
REMARK  282  A    between atoms: _684  and  _686
REMARK  283  A    between atoms: _686  and  _687
REMARK  284  A    between atoms: _686  and  _689
REMARK  285  A    between atoms: _689  and  _690
REMARK  286  A    between atoms: _692  and  _694
REMARK  287  A    between atoms: _694  and  _695
REMARK  288  A    between atoms: _694  and  _697
REMARK  289  A    between atoms: _697  and  _698
REMARK  290  A    between atoms: _701  and  _703
REMARK  291  A    between atoms: _703  and  _704
REMARK  292  A    between atoms: _703  and  _706
REMARK  293  A    between atoms: _706  and  _707
REMARK  294  A    between atoms: _707  and  _708
REMARK  295  A    between atoms: _708  and  _709
REMARK  296  A    between atoms: _718  and  _720
REMARK  297  A    between atoms: _720  and  _721
REMARK  298  A    between atoms: _720  and  _723
REMARK  299  A    between atoms: _723  and  _724
REMARK  300  A    between atoms: _724  and  _725
REMARK  301  A    between atoms: _725  and  _726
REMARK  302  A    between atoms: _726  and  _727
REMARK  303  A    between atoms: _731  and  _733
REMARK  304  A    between atoms: _733  and  _734
REMARK  305  A    between atoms: _733  and  _736
REMARK  306  A    between atoms: _736  and  _737
REMARK  307  A    between atoms: _740  and  _742
REMARK  308  A    between atoms: _742  and  _743
REMARK  309  A    between atoms: _742  and  _745
REMARK  310  A    between atoms: _745  and  _746
REMARK  311  A    between atoms: _746  and  _747
REMARK  312  A    between atoms: _749  and  _751
REMARK  313  A    between atoms: _751  and  _752
REMARK  314  A    between atoms: _751  and  _754
REMARK  315  A    between atoms: _757  and  _759
REMARK  316  A    between atoms: _759  and  _760
REMARK  317  A    between atoms: _759  and  _762
REMARK  318  A    between atoms: _762  and  _763
REMARK                            x       y       z     vdW  Elec       q    Type
REMARK                         _______ _______ _______ _____ _____    ______ ____
ROOT
ATOM      1  CA  ILE A   1      11.714  14.363  -5.218  0.00  0.00    +0.133 C 
ENDROOT
BRANCH   1   2
ATOM      2  N   ILE A   1      11.755  15.670  -5.861  0.00  0.00    -0.239 NA
ATOM      3  H   ILE A   1      10.884  16.235  -5.922  0.00  0.00    +0.142 HD
ENDBRANCH   1   2
BRANCH   1   4
ATOM      4  CB  ILE A   1      10.411  14.178  -4.393  0.00  0.00    +0.023 C 
ATOM      5  CG2 ILE A   1      10.317  12.759  -3.822  0.00  0.00    +0.002 C 
BRANCH   4   6
ATOM      6  CG1 ILE A   1      10.388  15.194  -3.247  0.00  0.00    +0.002 C 
ATOM      7  CD1 ILE A   1       9.106  15.157  -2.412  0.00  0.00    +0.000 C 
ENDBRANCH   4   6
ENDBRANCH   1   4
BRANCH   1   8
ATOM      8  C   ILE A   1      11.855  13.248  -6.238  0.00  0.00    +0.224 C 
ATOM      9  O   ILE A   1      12.685  12.348  -6.078  0.00  0.00    -0.287 OA
ENDBRANCH   1   8
TORSDOF 4
REMARK  Name = ../refined-set-2016/4omk/4omk_pocket.pdb
REMARK  318 active torsions:
REMARK  status: ('A' for Active; 'I' for Inactive)
REMARK    1  A    between atoms: _1  and  _3
REMARK    2  A    between atoms: _3  and  _4
REMARK    3  A    between atoms: _3  and  _6
REMARK    4  A    between atoms: _6  and  _7
REMARK    5  A    between atoms: _10  and  _12
REMARK    6  A    between atoms: _12  and  _13
REMARK    7  A    between atoms: _12  and  _15
REMARK    8  A    between atoms: _15  and  _16
REMARK    9  A    between atoms: _21  and  _22
REMARK   10  A    between atoms: _24  and  _26
REMARK   11  A    between atoms: _26  and  _27
REMARK   12  A    between atoms: _26  and  _29
REMARK   13  A    between atoms: _29  and  _30
REMARK   14  A    between atoms: _33  and  _35
REMARK   15  A    between atoms: _35  and  _36
REMARK   16  A    between atoms: _35  and  _38
REMARK   17  A    between atoms: _38  and  _39
REMARK   18  A    between atoms: _41  and  _43
REMARK   19  A    between atoms: _43  and  _44
REMARK   20  A    between atoms: _43  and  _46
REMARK   21  A    between atoms: _46  and  _47
REMARK   22  A    between atoms: _57  and  _59
REMARK   23  A    between atoms: _59  and  _60
REMARK   24  A    between atoms: _59  and  _62
REMARK   25  A    between atoms: _62  and  _63
REMARK   26  A    between atoms: _66  and  _68
REMARK   27  A    between atoms: _68  and  _69
REMARK   28  A    between atoms: _68  and  _71
REMARK   29  A    between atoms: _71  and  _72
REMARK   30  A    between atoms: _75  and  _77
REMARK   31  A    between atoms: _77  and  _78
REMARK   32  A    between atoms: _77  and  _80
REMARK   33  A    between atoms: _80  and  _81
REMARK   34  A    between atoms: _84  and  _86
REMARK   35  A    between atoms: _86  and  _87
REMARK   36  A    between atoms: _86  and  _89
REMARK   37  A    between atoms: _89  and  _90
REMARK   38  A    between atoms: _93  and  _95
REMARK   39  A    between atoms: _95  and  _96
REMARK   40  A    between atoms: _99  and  _101
REMARK   41  A    between atoms: _101  and  _102
REMARK   42  A    between atoms: _101  and  _104
REMARK   43  A    between atoms: _104  and  _105
REMARK   44  A    between atoms: _105  and  _106
REMARK   45  A    between atoms: _106  and  _107
REMARK   46  A    between atoms: _107  and  _108
REMARK   47  A    between atoms: _112  and  _114
REMARK   48  A    between atoms: _114  and  _115
REMARK   49  A    between atoms: _117  and  _119
REMARK   50  A    between atoms: _119  and  _120
REMARK   51  A    between atoms: _119  and  _122
REMARK   52  A    between atoms: _122  and  _123
REMARK   53  A    between atoms: _126  and  _128
REMARK   54  A    between atoms: _128  and  _129
REMARK   55  A    between atoms: _128  and  _131
REMARK   56  A    between atoms: _131  and  _132
REMARK   57  A    between atoms: _135  and  _137
REMARK   58  A    between atoms: _137  and  _138
REMARK   59  A    between atoms: _137  and  _140
REMARK   60  A    between atoms: _140  and  _141
REMARK   61  A    between atoms: _147  and  _149
REMARK   62  A    between atoms: _149  and  _150
REMARK   63  A    between atoms: _149  and  _152
REMARK   64  A    between atoms: _152  and  _153
REMARK   65  A    between atoms: _155  and  _157
REMARK   66  A    between atoms: _157  and  _158
REMARK   67  A    between atoms: _157  and  _160
REMARK   68  A    between atoms: _160  and  _161
REMARK   69  A    between atoms: _161  and  _162
REMARK   70  A    between atoms: _162  and  _163
REMARK   71  A    between atoms: _163  and  _164
REMARK   72  A    between atoms: _168  and  _170
REMARK   73  A    between atoms: _170  and  _171
REMARK   74  A    between atoms: _170  and  _173
REMARK   75  A    between atoms: _173  and  _174
REMARK   76  A    between atoms: _174  and  _175
REMARK   77  A    between atoms: _180  and  _182
REMARK   78  A    between atoms: _182  and  _183
REMARK   79  A    between atoms: _182  and  _185
REMARK   80  A    between atoms: _185  and  _186
REMARK   81  A    between atoms: _189  and  _191
REMARK   82  A    between atoms: _191  and  _192
REMARK   83  A    between atoms: _191  and  _194
REMARK   84  A    between atoms: _194  and  _195
REMARK   85  A    between atoms: _198  and  _200
REMARK   86  A    between atoms: _200  and  _201
REMARK   87  A    between atoms: _200  and  _203
REMARK   88  A    between atoms: _203  and  _204
REMARK   89  A    between atoms: _207  and  _209
REMARK   90  A    between atoms: _209  and  _210
REMARK   91  A    between atoms: _209  and  _212
REMARK   92  A    between atoms: _212  and  _213
REMARK   93  A    between atoms: _213  and  _214
REMARK   94  A    between atoms: _214  and  _215
REMARK   95  A    between atoms: _224  and  _226
REMARK   96  A    between atoms: _226  and  _227
REMARK   97  A    between atoms: _226  and  _229
REMARK   98  A    between atoms: _229  and  _230
REMARK   99  A    between atoms: _233  and  _235
REMARK  100  A    between atoms: _235  and  _236
REMARK  101  A    between atoms: _235  and  _238
REMARK  102  A    between atoms: _238  and  _239
REMARK  103  A    between atoms: _239  and  _240
REMARK  104  A    between atoms: _240  and  _241
REMARK  105  A    between atoms: _241  and  _242
REMARK  106  A    between atoms: _246  and  _248
REMARK  107  A    between atoms: _248  and  _249
REMARK  108  A    between atoms: _248  and  _251
REMARK  109  A    between atoms: _251  and  _252
REMARK  110  A    between atoms: _252  and  _253
REMARK  111  A    between atoms: _255  and  _257
REMARK  112  A    between atoms: _257  and  _258
REMARK  113  A    between atoms: _257  and  _260
REMARK  114  A    between atoms: _260  and  _261
REMARK  115  A    between atoms: _261  and  _262
REMARK  116  A    between atoms: _265  and  _267
REMARK  117  A    between atoms: _267  and  _268
REMARK  118  A    between atoms: _267  and  _270
REMARK  119  A    between atoms: _272  and  _274
REMARK  120  A    between atoms: _274  and  _275
REMARK  121  A    between atoms: _274  and  _277
REMARK  122  A    between atoms: _277  and  _278
REMARK  123  A    between atoms: _281  and  _283
REMARK  124  A    between atoms: _283  and  _284
REMARK  125  A    between atoms: _283  and  _286
REMARK  126  A    between atoms: _286  and  _287
REMARK  127  A    between atoms: _290  and  _292
REMARK  128  A    between atoms: _292  and  _293
REMARK  129  A    between atoms: _292  and  _295
REMARK  130  A    between atoms: _295  and  _296
REMARK  131  A    between atoms: _301  and  _302
REMARK  132  A    between atoms: _304  and  _306
REMARK  133  A    between atoms: _306  and  _307
REMARK  134  A    between atoms: _306  and  _309
REMARK  135  A    between atoms: _309  and  _310
REMARK  136  A    between atoms: _313  and  _315
REMARK  137  A    between atoms: _315  and  _316
REMARK  138  A    between atoms: _315  and  _318
REMARK  139  A    between atoms: _320  and  _322
REMARK  140  A    between atoms: _322  and  _323
REMARK  141  A    between atoms: _322  and  _325
REMARK  142  A    between atoms: _325  and  _326
REMARK  143  A    between atoms: _329  and  _331
REMARK  144  A    between atoms: _331  and  _332
REMARK  145  A    between atoms: _334  and  _336
REMARK  146  A    between atoms: _336  and  _337
REMARK  147  A    between atoms: _336  and  _339
REMARK  148  A    between atoms: _339  and  _340
REMARK  149  A    between atoms: _340  and  _341
REMARK  150  A    between atoms: _341  and  _342
REMARK  151  A    between atoms: _342  and  _343
REMARK  152  A    between atoms: _347  and  _349
REMARK  153  A    between atoms: _349  and  _350
REMARK  154  A    between atoms: _349  and  _352
REMARK  155  A    between atoms: _352  and  _353
REMARK  156  A    between atoms: _358  and  _360
REMARK  157  A    between atoms: _360  and  _361
REMARK  158  A    between atoms: _360  and  _363
REMARK  159  A    between atoms: _363  and  _364
REMARK  160  A    between atoms: _367  and  _369
REMARK  161  A    between atoms: _369  and  _370
REMARK  162  A    between atoms: _369  and  _372
REMARK  163  A    between atoms: _372  and  _373
REMARK  164  A    between atoms: _383  and  _385
REMARK  165  A    between atoms: _385  and  _386
REMARK  166  A    between atoms: _385  and  _388
REMARK  167  A    between atoms: _388  and  _389
REMARK  168  A    between atoms: _389  and  _390
REMARK  169  A    between atoms: _390  and  _391
REMARK  170  A    between atoms: _391  and  _392
REMARK  171  A    between atoms: _397  and  _398
REMARK  172  A    between atoms: _403  and  _405
REMARK  173  A    between atoms: _405  and  _406
REMARK  174  A    between atoms: _409  and  _411
REMARK  175  A    between atoms: _411  and  _412
REMARK  176  A    between atoms: _411  and  _414
REMARK  177  A    between atoms: _417  and  _419
REMARK  178  A    between atoms: _419  and  _420
REMARK  179  A    between atoms: _419  and  _422
REMARK  180  A    between atoms: _422  and  _423
REMARK  181  A    between atoms: _423  and  _424
REMARK  182  A    between atoms: _427  and  _429
REMARK  183  A    between atoms: _429  and  _430
REMARK  184  A    between atoms: _433  and  _435
REMARK  185  A    between atoms: _435  and  _436
REMARK  186  A    between atoms: _435  and  _438
REMARK  187  A    between atoms: _438  and  _439
REMARK  188  A    between atoms: _444  and  _445
REMARK  189  A    between atoms: _447  and  _449
REMARK  190  A    between atoms: _449  and  _450
REMARK  191  A    between atoms: _452  and  _454
REMARK  192  A    between atoms: _454  and  _455
REMARK  193  A    between atoms: _454  and  _457
REMARK  194  A    between atoms: _457  and  _458
REMARK  195  A    between atoms: _458  and  _459
REMARK  196  A    between atoms: _462  and  _464
REMARK  197  A    between atoms: _464  and  _465
REMARK  198  A    between atoms: _464  and  _467
REMARK  199  A    between atoms: _467  and  _468
REMARK  200  A    between atoms: _474  and  _476
REMARK  201  A    between atoms: _476  and  _477
REMARK  202  A    between atoms: _476  and  _479
REMARK  203  A    between atoms: _479  and  _480
REMARK  204  A    between atoms: _483  and  _485
REMARK  205  A    between atoms: _485  and  _486
REMARK  206  A    between atoms: _485  and  _488
REMARK  207  A    between atoms: _488  and  _489
REMARK  208  A    between atoms: _489  and  _490
REMARK  209  A    between atoms: _492  and  _494
REMARK  210  A    between atoms: _494  and  _495
REMARK  211  A    between atoms: _494  and  _497
REMARK  212  A    between atoms: _497  and  _498
REMARK  213  A    between atoms: _504  and  _506
REMARK  214  A    between atoms: _506  and  _507
REMARK  215  A    between atoms: _506  and  _509
REMARK  216  A    between atoms: _509  and  _510
REMARK  217  A    between atoms: _510  and  _511
REMARK  218  A    between atoms: _514  and  _516
REMARK  219  A    between atoms: _516  and  _517
REMARK  220  A    between atoms: _516  and  _519
REMARK  221  A    between atoms: _519  and  _520
REMARK  222  A    between atoms: _523  and  _525
REMARK  223  A    between atoms: _525  and  _526
REMARK  224  A    between atoms: _525  and  _528
REMARK  225  A    between atoms: _528  and  _529
REMARK  226  A    between atoms: _532  and  _534
REMARK  227  A    between atoms: _534  and  _535
REMARK  228  A    between atoms: _534  and  _537
REMARK  229  A    between atoms: _537  and  _538
REMARK  230  A    between atoms: _544  and  _546
REMARK  231  A    between atoms: _546  and  _547
REMARK  232  A    between atoms: _546  and  _549
REMARK  233  A    between atoms: _552  and  _554
REMARK  234  A    between atoms: _554  and  _555
REMARK  235  A    between atoms: _559  and  _560
REMARK  236  A    between atoms: _565  and  _567
REMARK  237  A    between atoms: _567  and  _568
REMARK  238  A    between atoms: _567  and  _570
REMARK  239  A    between atoms: _570  and  _571
REMARK  240  A    between atoms: _574  and  _576
REMARK  241  A    between atoms: _576  and  _577
REMARK  242  A    between atoms: _576  and  _579
REMARK  243  A    between atoms: _579  and  _580
REMARK  244  A    between atoms: _587  and  _588
REMARK  245  A    between atoms: _593  and  _595
REMARK  246  A    between atoms: _595  and  _596
REMARK  247  A    between atoms: _595  and  _598
REMARK  248  A    between atoms: _601  and  _603
REMARK  249  A    between atoms: _603  and  _604
REMARK  250  A    between atoms: _607  and  _609
REMARK  251  A    between atoms: _609  and  _610
REMARK  252  A    between atoms: _609  and  _612
REMARK  253  A    between atoms: _612  and  _613
REMARK  254  A    between atoms: _618  and  _619
REMARK  255  A    between atoms: _621  and  _623
REMARK  256  A    between atoms: _623  and  _624
REMARK  257  A    between atoms: _623  and  _626
REMARK  258  A    between atoms: _626  and  _627
REMARK  259  A    between atoms: _632  and  _634
REMARK  260  A    between atoms: _634  and  _635
REMARK  261  A    between atoms: _634  and  _637
REMARK  262  A    between atoms: _637  and  _638
REMARK  263  A    between atoms: _641  and  _643
REMARK  264  A    between atoms: _643  and  _644
REMARK  265  A    between atoms: _643  and  _646
REMARK  266  A    between atoms: _646  and  _647
REMARK  267  A    between atoms: _650  and  _652
REMARK  268  A    between atoms: _652  and  _653
REMARK  269  A    between atoms: _652  and  _655
REMARK  270  A    between atoms: _655  and  _656
REMARK  271  A    between atoms: _656  and  _657
REMARK  272  A    between atoms: _657  and  _658
REMARK  273  A    between atoms: _658  and  _659
REMARK  274  A    between atoms: _663  and  _665
REMARK  275  A    between atoms: _665  and  _666
REMARK  276  A    between atoms: _665  and  _668
REMARK  277  A    between atoms: _668  and  _669
REMARK  278  A    between atoms: _675  and  _677
REMARK  279  A    between atoms: _677  and  _678
REMARK  280  A    between atoms: _677  and  _680
REMARK  281  A    between atoms: _680  and  _681
REMARK  282  A    between atoms: _684  and  _686
REMARK  283  A    between atoms: _686  and  _687
REMARK  284  A    between atoms: _686  and  _689
REMARK  285  A    between atoms: _689  and  _690
REMARK  286  A    between atoms: _692  and  _694
REMARK  287  A    between atoms: _694  and  _695
REMARK  288  A    between atoms: _694  and  _697
REMARK  289  A    between atoms: _697  and  _698
REMARK  290  A    between atoms: _701  and  _703
REMARK  291  A    between atoms: _703  and  _704
REMARK  292  A    between atoms: _703  and  _706
REMARK  293  A    between atoms: _706  and  _707
REMARK  294  A    between atoms: _707  and  _708
REMARK  295  A    between atoms: _708  and  _709
REMARK  296  A    between atoms: _718  and  _720
REMARK  297  A    between atoms: _720  and  _721
REMARK  298  A    between atoms: _720  and  _723
REMARK  299  A    between atoms: _723  and  _724
REMARK  300  A    between atoms: _724  and  _725
REMARK  301  A    between atoms: _725  and  _726
REMARK  302  A    between atoms: _726  and  _727
REMARK  303  A    between atoms: _731  and  _733
REMARK  304  A    between atoms: _733  and  _734
REMARK  305  A    between atoms: _733  and  _736
REMARK  306  A    between atoms: _736  and  _737
REMARK  307  A    between atoms: _740  and  _742
REMARK  308  A    between atoms: _742  and  _743
REMARK  309  A    between atoms: _742  and  _745
REMARK  310  A    between atoms: _745  and  _746
REMARK  311  A    between atoms: _746  and  _747
REMARK  312  A    between atoms: _749  and  _751
REMARK  313  A    between atoms: _751  and  _752
REMARK  314  A    between atoms: _751  and  _754
REMARK  315  A    between atoms: _757  and  _759
REMARK  316  A    between atoms: _759  and  _760
REMARK  317  A    between atoms: _759  and  _762
REMARK  318  A    between atoms: _762  and  _763
REMARK                            x       y       z     vdW  Elec       q    Type
REMARK                         _______ _______ _______ _____ _____    ______ ____
ROOT
ATOM      1  C   TYR A   1      16.577  12.436  -5.247  0.00  0.00    +0.239 C 
ATOM      2  O   TYR A   1      17.532  12.266  -4.502  0.00  0.00    -0.274 OA
ATOM      3  N   LEU A   2      15.377  11.943  -4.960  0.00  0.00    -0.297 N 
ATOM      4  H   LEU A   2      14.561  12.192  -5.554  0.00  0.00    +0.150 HD
ENDROOT
BRANCH   1   5
ATOM      5  CA  TYR A   1      16.765  13.275  -6.520  0.00  0.00    +0.149 C 
BRANCH   5   6
ATOM      6  N   TYR A   1      15.614  13.386  -7.425  0.00  0.00    -0.238 NA
ATOM      7  H   TYR A   1      14.703  13.734  -7.063  0.00  0.00    +0.142 HD
ENDBRANCH   5   6
BRANCH   5   8
ATOM      8  CB  TYR A   1      17.241  14.687  -6.119  0.00  0.00    +0.053 C 
BRANCH   8   9
ATOM      9  CG  TYR A   1      17.699  15.471  -7.304  0.00  0.00    -0.020 A 
ATOM     10  CD2 TYR A   1      18.973  15.288  -7.840  0.00  0.00    -0.001 A 
ATOM     11  CE2 TYR A   1      19.386  15.987  -8.947  0.00  0.00    +0.036 A 
ATOM     12  CZ  TYR A   1      18.511  16.874  -9.551  0.00  0.00    +0.134 A 
ATOM     13  CE1 TYR A   1      17.244  17.052  -9.055  0.00  0.00    +0.036 A 
ATOM     14  CD1 TYR A   1      16.842  16.360  -7.943  0.00  0.00    -0.001 A 
BRANCH  12  15
ATOM     15  OH  TYR A   1      18.902  17.583 -10.672  0.00  0.00    -0.506 OA
ATOM     16  HH  TYR A   1      19.835  17.345 -10.902  0.00  0.00    +0.292 HD
ENDBRANCH  12  15
ENDBRANCH   8   9
ENDBRANCH   5   8
ENDBRANCH   1   5
BRANCH   3  17
ATOM     17  CA  LEU A   2      15.198  11.058  -3.822  0.00  0.00    +0.149 C 
BRANCH  17  18
ATOM     18  C   LEU A   2      15.654   9.659  -4.245  0.00  0.00    +0.241 C 
ATOM     19  N   SER A   3      16.771   9.251  -3.680  0.00  0.00    -0.296 N 
ATOM     20  H   SER A   3      17.213   9.823  -2.933  0.00  0.00    +0.150 HD
ATOM     21  O   LEU A   2      15.028   8.968  -5.064  0.00  0.00    -0.273 OA
BRANCH  19  22
ATOM     22  CA  SER A   3      17.389   8.002  -4.098  0.00  0.00    +0.166 C 
BRANCH  22  23
ATOM     23  CB  SER A   3      16.617   6.750  -3.652  0.00  0.00    +0.229 C 
ATOM     24  OG  SER A   3      15.751   6.780  -2.737  0.00  0.00    -0.286 OA
ENDBRANCH  22  23
BRANCH  22  25
ATOM     25  C   SER A   3      18.819   7.969  -3.569  0.00  0.00    +0.165 C 
BRANCH  25  26
ATOM     26  O   SER A   3      18.813   7.796  -2.168  0.00  0.00    -0.380 OA
ATOM     27  H   SER A   3      19.745   7.776  -1.835  0.00  0.00    +0.211 HD
ENDBRANCH  25  26
ENDBRANCH  22  25
ENDBRANCH  19  22
ENDBRANCH  17  18
BRANCH  17  28
ATOM     28  CB  LEU A   2      13.762  11.025  -3.317  0.00  0.00    +0.029 C 
BRANCH  28  29
ATOM     29  CG  LEU A   2      13.551  10.144  -2.069  0.00  0.00    +0.002 C 
ATOM     30  CD2 LEU A   2      14.214  10.750  -0.874  0.00  0.00    +0.000 C 
ATOM     31  CD1 LEU A   2      12.080   9.905  -1.799  0.00  0.00    +0.000 C 
ENDBRANCH  28  29
ENDBRANCH  17  28
ENDBRANCH   3  17
TORSDOF 13
REMARK  Name = ../refined-set-2016/4omk/4omk_pocket.pdb
REMARK  318 active torsions:
REMARK  status: ('A' for Active; 'I' for Inactive)
REMARK    1  A    between atoms: _1  and  _3
REMARK    2  A    between atoms: _3  and  _4
REMARK    3  A    between atoms: _3  and  _6
REMARK    4  A    between atoms: _6  and  _7
REMARK    5  A    between atoms: _10  and  _12
REMARK    6  A    between atoms: _12  and  _13
REMARK    7  A    between atoms: _12  and  _15
REMARK    8  A    between atoms: _15  and  _16
REMARK    9  A    between atoms: _21  and  _22
REMARK   10  A    between atoms: _24  and  _26
REMARK   11  A    between atoms: _26  and  _27
REMARK   12  A    between atoms: _26  and  _29
REMARK   13  A    between atoms: _29  and  _30
REMARK   14  A    between atoms: _33  and  _35
REMARK   15  A    between atoms: _35  and  _36
REMARK   16  A    between atoms: _35  and  _38
REMARK   17  A    between atoms: _38  and  _39
REMARK   18  A    between atoms: _41  and  _43
REMARK   19  A    between atoms: _43  and  _44
REMARK   20  A    between atoms: _43  and  _46
REMARK   21  A    between atoms: _46  and  _47
REMARK   22  A    between atoms: _57  and  _59
REMARK   23  A    between atoms: _59  and  _60
REMARK   24  A    between atoms: _59  and  _62
REMARK   25  A    between atoms: _62  and  _63
REMARK   26  A    between atoms: _66  and  _68
REMARK   27  A    between atoms: _68  and  _69
REMARK   28  A    between atoms: _68  and  _71
REMARK   29  A    between atoms: _71  and  _72
REMARK   30  A    between atoms: _75  and  _77
REMARK   31  A    between atoms: _77  and  _78
REMARK   32  A    between atoms: _77  and  _80
REMARK   33  A    between atoms: _80  and  _81
REMARK   34  A    between atoms: _84  and  _86
REMARK   35  A    between atoms: _86  and  _87
REMARK   36  A    between atoms: _86  and  _89
REMARK   37  A    between atoms: _89  and  _90
REMARK   38  A    between atoms: _93  and  _95
REMARK   39  A    between atoms: _95  and  _96
REMARK   40  A    between atoms: _99  and  _101
REMARK   41  A    between atoms: _101  and  _102
REMARK   42  A    between atoms: _101  and  _104
REMARK   43  A    between atoms: _104  and  _105
REMARK   44  A    between atoms: _105  and  _106
REMARK   45  A    between atoms: _106  and  _107
REMARK   46  A    between atoms: _107  and  _108
REMARK   47  A    between atoms: _112  and  _114
REMARK   48  A    between atoms: _114  and  _115
REMARK   49  A    between atoms: _117  and  _119
REMARK   50  A    between atoms: _119  and  _120
REMARK   51  A    between atoms: _119  and  _122
REMARK   52  A    between atoms: _122  and  _123
REMARK   53  A    between atoms: _126  and  _128
REMARK   54  A    between atoms: _128  and  _129
REMARK   55  A    between atoms: _128  and  _131
REMARK   56  A    between atoms: _131  and  _132
REMARK   57  A    between atoms: _135  and  _137
REMARK   58  A    between atoms: _137  and  _138
REMARK   59  A    between atoms: _137  and  _140
REMARK   60  A    between atoms: _140  and  _141
REMARK   61  A    between atoms: _147  and  _149
REMARK   62  A    between atoms: _149  and  _150
REMARK   63  A    between atoms: _149  and  _152
REMARK   64  A    between atoms: _152  and  _153
REMARK   65  A    between atoms: _155  and  _157
REMARK   66  A    between atoms: _157  and  _158
REMARK   67  A    between atoms: _157  and  _160
REMARK   68  A    between atoms: _160  and  _161
REMARK   69  A    between atoms: _161  and  _162
REMARK   70  A    between atoms: _162  and  _163
REMARK   71  A    between atoms: _163  and  _164
REMARK   72  A    between atoms: _168  and  _170
REMARK   73  A    between atoms: _170  and  _171
REMARK   74  A    between atoms: _170  and  _173
REMARK   75  A    between atoms: _173  and  _174
REMARK   76  A    between atoms: _174  and  _175
REMARK   77  A    between atoms: _180  and  _182
REMARK   78  A    between atoms: _182  and  _183
REMARK   79  A    between atoms: _182  and  _185
REMARK   80  A    between atoms: _185  and  _186
REMARK   81  A    between atoms: _189  and  _191
REMARK   82  A    between atoms: _191  and  _192
REMARK   83  A    between atoms: _191  and  _194
REMARK   84  A    between atoms: _194  and  _195
REMARK   85  A    between atoms: _198  and  _200
REMARK   86  A    between atoms: _200  and  _201
REMARK   87  A    between atoms: _200  and  _203
REMARK   88  A    between atoms: _203  and  _204
REMARK   89  A    between atoms: _207  and  _209
REMARK   90  A    between atoms: _209  and  _210
REMARK   91  A    between atoms: _209  and  _212
REMARK   92  A    between atoms: _212  and  _213
REMARK   93  A    between atoms: _213  and  _214
REMARK   94  A    between atoms: _214  and  _215
REMARK   95  A    between atoms: _224  and  _226
REMARK   96  A    between atoms: _226  and  _227
REMARK   97  A    between atoms: _226  and  _229
REMARK   98  A    between atoms: _229  and  _230
REMARK   99  A    between atoms: _233  and  _235
REMARK  100  A    between atoms: _235  and  _236
REMARK  101  A    between atoms: _235  and  _238
REMARK  102  A    between atoms: _238  and  _239
REMARK  103  A    between atoms: _239  and  _240
REMARK  104  A    between atoms: _240  and  _241
REMARK  105  A    between atoms: _241  and  _242
REMARK  106  A    between atoms: _246  and  _248
REMARK  107  A    between atoms: _248  and  _249
REMARK  108  A    between atoms: _248  and  _251
REMARK  109  A    between atoms: _251  and  _252
REMARK  110  A    between atoms: _252  and  _253
REMARK  111  A    between atoms: _255  and  _257
REMARK  112  A    between atoms: _257  and  _258
REMARK  113  A    between atoms: _257  and  _260
REMARK  114  A    between atoms: _260  and  _261
REMARK  115  A    between atoms: _261  and  _262
REMARK  116  A    between atoms: _265  and  _267
REMARK  117  A    between atoms: _267  and  _268
REMARK  118  A    between atoms: _267  and  _270
REMARK  119  A    between atoms: _272  and  _274
REMARK  120  A    between atoms: _274  and  _275
REMARK  121  A    between atoms: _274  and  _277
REMARK  122  A    between atoms: _277  and  _278
REMARK  123  A    between atoms: _281  and  _283
REMARK  124  A    between atoms: _283  and  _284
REMARK  125  A    between atoms: _283  and  _286
REMARK  126  A    between atoms: _286  and  _287
REMARK  127  A    between atoms: _290  and  _292
REMARK  128  A    between atoms: _292  and  _293
REMARK  129  A    between atoms: _292  and  _295
REMARK  130  A    between atoms: _295  and  _296
REMARK  131  A    between atoms: _301  and  _302
REMARK  132  A    between atoms: _304  and  _306
REMARK  133  A    between atoms: _306  and  _307
REMARK  134  A    between atoms: _306  and  _309
REMARK  135  A    between atoms: _309  and  _310
REMARK  136  A    between atoms: _313  and  _315
REMARK  137  A    between atoms: _315  and  _316
REMARK  138  A    between atoms: _315  and  _318
REMARK  139  A    between atoms: _320  and  _322
REMARK  140  A    between atoms: _322  and  _323
REMARK  141  A    between atoms: _322  and  _325
REMARK  142  A    between atoms: _325  and  _326
REMARK  143  A    between atoms: _329  and  _331
REMARK  144  A    between atoms: _331  and  _332
REMARK  145  A    between atoms: _334  and  _336
REMARK  146  A    between atoms: _336  and  _337
REMARK  147  A    between atoms: _336  and  _339
REMARK  148  A    between atoms: _339  and  _340
REMARK  149  A    between atoms: _340  and  _341
REMARK  150  A    between atoms: _341  and  _342
REMARK  151  A    between atoms: _342  and  _343
REMARK  152  A    between atoms: _347  and  _349
REMARK  153  A    between atoms: _349  and  _350
REMARK  154  A    between atoms: _349  and  _352
REMARK  155  A    between atoms: _352  and  _353
REMARK  156  A    between atoms: _358  and  _360
REMARK  157  A    between atoms: _360  and  _361
REMARK  158  A    between atoms: _360  and  _363
REMARK  159  A    between atoms: _363  and  _364
REMARK  160  A    between atoms: _367  and  _369
REMARK  161  A    between atoms: _369  and  _370
REMARK  162  A    between atoms: _369  and  _372
REMARK  163  A    between atoms: _372  and  _373
REMARK  164  A    between atoms: _383  and  _385
REMARK  165  A    between atoms: _385  and  _386
REMARK  166  A    between atoms: _385  and  _388
REMARK  167  A    between atoms: _388  and  _389
REMARK  168  A    between atoms: _389  and  _390
REMARK  169  A    between atoms: _390  and  _391
REMARK  170  A    between atoms: _391  and  _392
REMARK  171  A    between atoms: _397  and  _398
REMARK  172  A    between atoms: _403  and  _405
REMARK  173  A    between atoms: _405  and  _406
REMARK  174  A    between atoms: _409  and  _411
REMARK  175  A    between atoms: _411  and  _412
REMARK  176  A    between atoms: _411  and  _414
REMARK  177  A    between atoms: _417  and  _419
REMARK  178  A    between atoms: _419  and  _420
REMARK  179  A    between atoms: _419  and  _422
REMARK  180  A    between atoms: _422  and  _423
REMARK  181  A    between atoms: _423  and  _424
REMARK  182  A    between atoms: _427  and  _429
REMARK  183  A    between atoms: _429  and  _430
REMARK  184  A    between atoms: _433  and  _435
REMARK  185  A    between atoms: _435  and  _436
REMARK  186  A    between atoms: _435  and  _438
REMARK  187  A    between atoms: _438  and  _439
REMARK  188  A    between atoms: _444  and  _445
REMARK  189  A    between atoms: _447  and  _449
REMARK  190  A    between atoms: _449  and  _450
REMARK  191  A    between atoms: _452  and  _454
REMARK  192  A    between atoms: _454  and  _455
REMARK  193  A    between atoms: _454  and  _457
REMARK  194  A    between atoms: _457  and  _458
REMARK  195  A    between atoms: _458  and  _459
REMARK  196  A    between atoms: _462  and  _464
REMARK  197  A    between atoms: _464  and  _465
REMARK  198  A    between atoms: _464  and  _467
REMARK  199  A    between atoms: _467  and  _468
REMARK  200  A    between atoms: _474  and  _476
REMARK  201  A    between atoms: _476  and  _477
REMARK  202  A    between atoms: _476  and  _479
REMARK  203  A    between atoms: _479  and  _480
REMARK  204  A    between atoms: _483  and  _485
REMARK  205  A    between atoms: _485  and  _486
REMARK  206  A    between atoms: _485  and  _488
REMARK  207  A    between atoms: _488  and  _489
REMARK  208  A    between atoms: _489  and  _490
REMARK  209  A    between atoms: _492  and  _494
REMARK  210  A    between atoms: _494  and  _495
REMARK  211  A    between atoms: _494  and  _497
REMARK  212  A    between atoms: _497  and  _498
REMARK  213  A    between atoms: _504  and  _506
REMARK  214  A    between atoms: _506  and  _507
REMARK  215  A    between atoms: _506  and  _509
REMARK  216  A    between atoms: _509  and  _510
REMARK  217  A    between atoms: _510  and  _511
REMARK  218  A    between atoms: _514  and  _516
REMARK  219  A    between atoms: _516  and  _517
REMARK  220  A    between atoms: _516  and  _519
REMARK  221  A    between atoms: _519  and  _520
REMARK  222  A    between atoms: _523  and  _525
REMARK  223  A    between atoms: _525  and  _526
REMARK  224  A    between atoms: _525  and  _528
REMARK  225  A    between atoms: _528  and  _529
REMARK  226  A    between atoms: _532  and  _534
REMARK  227  A    between atoms: _534  and  _535
REMARK  228  A    between atoms: _534  and  _537
REMARK  229  A    between atoms: _537  and  _538
REMARK  230  A    between atoms: _544  and  _546
REMARK  231  A    between atoms: _546  and  _547
REMARK  232  A    between atoms: _546  and  _549
REMARK  233  A    between atoms: _552  and  _554
REMARK  234  A    between atoms: _554  and  _555
REMARK  235  A    between atoms: _559  and  _560
REMARK  236  A    between atoms: _565  and  _567
REMARK  237  A    between atoms: _567  and  _568
REMARK  238  A    between atoms: _567  and  _570
REMARK  239  A    between atoms: _570  and  _571
REMARK  240  A    between atoms: _574  and  _576
REMARK  241  A    between atoms: _576  and  _577
REMARK  242  A    between atoms: _576  and  _579
REMARK  243  A    between atoms: _579  and  _580
REMARK  244  A    between atoms: _587  and  _588
REMARK  245  A    between atoms: _593  and  _595
REMARK  246  A    between atoms: _595  and  _596
REMARK  247  A    between atoms: _595  and  _598
REMARK  248  A    between atoms: _601  and  _603
REMARK  249  A    between atoms: _603  and  _604
REMARK  250  A    between atoms: _607  and  _609
REMARK  251  A    between atoms: _609  and  _610
REMARK  252  A    between atoms: _609  and  _612
REMARK  253  A    between atoms: _612  and  _613
REMARK  254  A    between atoms: _618  and  _619
REMARK  255  A    between atoms: _621  and  _623
REMARK  256  A    between atoms: _623  and  _624
REMARK  257  A    between atoms: _623  and  _626
REMARK  258  A    between atoms: _626  and  _627
REMARK  259  A    between atoms: _632  and  _634
REMARK  260  A    between atoms: _634  and  _635
REMARK  261  A    between atoms: _634  and  _637
REMARK  262  A    between atoms: _637  and  _638
REMARK  263  A    between atoms: _641  and  _643
REMARK  264  A    between atoms: _643  and  _644
REMARK  265  A    between atoms: _643  and  _646
REMARK  266  A    between atoms: _646  and  _647
REMARK  267  A    between atoms: _650  and  _652
REMARK  268  A    between atoms: _652  and  _653
REMARK  269  A    between atoms: _652  and  _655
REMARK  270  A    between atoms: _655  and  _656
REMARK  271  A    between atoms: _656  and  _657
REMARK  272  A    between atoms: _657  and  _658
REMARK  273  A    between atoms: _658  and  _659
REMARK  274  A    between atoms: _663  and  _665
REMARK  275  A    between atoms: _665  and  _666
REMARK  276  A    between atoms: _665  and  _668
REMARK  277  A    between atoms: _668  and  _669
REMARK  278  A    between atoms: _675  and  _677
REMARK  279  A    between atoms: _677  and  _678
REMARK  280  A    between atoms: _677  and  _680
REMARK  281  A    between atoms: _680  and  _681
REMARK  282  A    between atoms: _684  and  _686
REMARK  283  A    between atoms: _686  and  _687
REMARK  284  A    between atoms: _686  and  _689
REMARK  285  A    between atoms: _689  and  _690
REMARK  286  A    between atoms: _692  and  _694
REMARK  287  A    between atoms: _694  and  _695
REMARK  288  A    between atoms: _694  and  _697
REMARK  289  A    between atoms: _697  and  _698
REMARK  290  A    between atoms: _701  and  _703
REMARK  291  A    between atoms: _703  and  _704
REMARK  292  A    between atoms: _703  and  _706
REMARK  293  A    between atoms: _706  and  _707
REMARK  294  A    between atoms: _707  and  _708
REMARK  295  A    between atoms: _708  and  _709
REMARK  296  A    between atoms: _718  and  _720
REMARK  297  A    between atoms: _720  and  _721
REMARK  298  A    between atoms: _720  and  _723
REMARK  299  A    between atoms: _723  and  _724
REMARK  300  A    between atoms: _724  and  _725
REMARK  301  A    between atoms: _725  and  _726
REMARK  302  A    between atoms: _726  and  _727
REMARK  303  A    between atoms: _731  and  _733
REMARK  304  A    between atoms: _733  and  _734
REMARK  305  A    between atoms: _733  and  _736
REMARK  306  A    between atoms: _736  and  _737
REMARK  307  A    between atoms: _740  and  _742
REMARK  308  A    between atoms: _742  and  _743
REMARK  309  A    between atoms: _742  and  _745
REMARK  310  A    between atoms: _745  and  _746
REMARK  311  A    between atoms: _746  and  _747
REMARK  312  A    between atoms: _749  and  _751
REMARK  313  A    between atoms: _751  and  _752
REMARK  314  A    between atoms: _751  and  _754
REMARK  315  A    between atoms: _757  and  _759
REMARK  316  A    between atoms: _759  and  _760
REMARK  317  A    between atoms: _759  and  _762
REMARK  318  A    between atoms: _762  and  _763
REMARK                            x       y       z     vdW  Elec       q    Type
REMARK                         _______ _______ _______ _____ _____    ______ ____
ROOT
ATOM      1  CG  TRP A   1      13.370  -0.264  -1.321  0.00  0.00    -0.002 A 
ATOM      2  CD1 TRP A   1      14.212   0.458  -0.528  0.00  0.00    +0.068 A 
ATOM      3  NE1 TRP A   1      14.085   1.794  -0.808  0.00  0.00    -0.352 N 
ATOM      4  HE1 TRP A   1      14.614   2.560  -0.344  0.00  0.00    +0.166 HD
ATOM      5  CE2 TRP A   1      13.152   1.960  -1.795  0.00  0.00    +0.056 A 
ATOM      6  CZ2 TRP A   1      12.685   3.112  -2.401  0.00  0.00    +0.017 A 
ATOM      7  CH2 TRP A   1      11.742   2.982  -3.372  0.00  0.00    +0.001 A 
ATOM      8  CZ3 TRP A   1      11.238   1.737  -3.739  0.00  0.00    +0.000 A 
ATOM      9  CE3 TRP A   1      11.703   0.575  -3.132  0.00  0.00    +0.001 A 
ATOM     10  CD2 TRP A   1      12.678   0.681  -2.145  0.00  0.00    +0.013 A 
ENDROOT
BRANCH   1  11
ATOM     11  CB  TRP A   1      13.228  -1.735  -1.352  0.00  0.00    +0.053 C 
BRANCH  11  12
ATOM     12  CA  TRP A   1      14.206  -2.378  -2.362  0.00  0.00    +0.137 C 
BRANCH  12  13
ATOM     13  N   TRP A   1      14.096  -3.824  -2.326  0.00  0.00    -0.239 NA
ATOM     14  H   TRP A   1      14.249  -4.300  -1.414  0.00  0.00    +0.142 HD
ENDBRANCH  12  13
BRANCH  12  15
ATOM     15  C   TRP A   1      15.633  -1.981  -2.026  0.00  0.00    +0.224 C 
ATOM     16  O   TRP A   1      16.203  -2.491  -1.054  0.00  0.00    -0.287 OA
ENDBRANCH  12  15
ENDBRANCH  11  12
ENDBRANCH   1  11
TORSDOF 4
REMARK  Name = ../refined-set-2016/4omk/4omk_pocket.pdb
REMARK  318 active torsions:
REMARK  status: ('A' for Active; 'I' for Inactive)
REMARK    1  A    between atoms: _1  and  _3
REMARK    2  A    between atoms: _3  and  _4
REMARK    3  A    between atoms: _3  and  _6
REMARK    4  A    between atoms: _6  and  _7
REMARK    5  A    between atoms: _10  and  _12
REMARK    6  A    between atoms: _12  and  _13
REMARK    7  A    between atoms: _12  and  _15
REMARK    8  A    between atoms: _15  and  _16
REMARK    9  A    between atoms: _21  and  _22
REMARK   10  A    between atoms: _24  and  _26
REMARK   11  A    between atoms: _26  and  _27
REMARK   12  A    between atoms: _26  and  _29
REMARK   13  A    between atoms: _29  and  _30
REMARK   14  A    between atoms: _33  and  _35
REMARK   15  A    between atoms: _35  and  _36
REMARK   16  A    between atoms: _35  and  _38
REMARK   17  A    between atoms: _38  and  _39
REMARK   18  A    between atoms: _41  and  _43
REMARK   19  A    between atoms: _43  and  _44
REMARK   20  A    between atoms: _43  and  _46
REMARK   21  A    between atoms: _46  and  _47
REMARK   22  A    between atoms: _57  and  _59
REMARK   23  A    between atoms: _59  and  _60
REMARK   24  A    between atoms: _59  and  _62
REMARK   25  A    between atoms: _62  and  _63
REMARK   26  A    between atoms: _66  and  _68
REMARK   27  A    between atoms: _68  and  _69
REMARK   28  A    between atoms: _68  and  _71
REMARK   29  A    between atoms: _71  and  _72
REMARK   30  A    between atoms: _75  and  _77
REMARK   31  A    between atoms: _77  and  _78
REMARK   32  A    between atoms: _77  and  _80
REMARK   33  A    between atoms: _80  and  _81
REMARK   34  A    between atoms: _84  and  _86
REMARK   35  A    between atoms: _86  and  _87
REMARK   36  A    between atoms: _86  and  _89
REMARK   37  A    between atoms: _89  and  _90
REMARK   38  A    between atoms: _93  and  _95
REMARK   39  A    between atoms: _95  and  _96
REMARK   40  A    between atoms: _99  and  _101
REMARK   41  A    between atoms: _101  and  _102
REMARK   42  A    between atoms: _101  and  _104
REMARK   43  A    between atoms: _104  and  _105
REMARK   44  A    between atoms: _105  and  _106
REMARK   45  A    between atoms: _106  and  _107
REMARK   46  A    between atoms: _107  and  _108
REMARK   47  A    between atoms: _112  and  _114
REMARK   48  A    between atoms: _114  and  _115
REMARK   49  A    between atoms: _117  and  _119
REMARK   50  A    between atoms: _119  and  _120
REMARK   51  A    between atoms: _119  and  _122
REMARK   52  A    between atoms: _122  and  _123
REMARK   53  A    between atoms: _126  and  _128
REMARK   54  A    between atoms: _128  and  _129
REMARK   55  A    between atoms: _128  and  _131
REMARK   56  A    between atoms: _131  and  _132
REMARK   57  A    between atoms: _135  and  _137
REMARK   58  A    between atoms: _137  and  _138
REMARK   59  A    between atoms: _137  and  _140
REMARK   60  A    between atoms: _140  and  _141
REMARK   61  A    between atoms: _147  and  _149
REMARK   62  A    between atoms: _149  and  _150
REMARK   63  A    between atoms: _149  and  _152
REMARK   64  A    between atoms: _152  and  _153
REMARK   65  A    between atoms: _155  and  _157
REMARK   66  A    between atoms: _157  and  _158
REMARK   67  A    between atoms: _157  and  _160
REMARK   68  A    between atoms: _160  and  _161
REMARK   69  A    between atoms: _161  and  _162
REMARK   70  A    between atoms: _162  and  _163
REMARK   71  A    between atoms: _163  and  _164
REMARK   72  A    between atoms: _168  and  _170
REMARK   73  A    between atoms: _170  and  _171
REMARK   74  A    between atoms: _170  and  _173
REMARK   75  A    between atoms: _173  and  _174
REMARK   76  A    between atoms: _174  and  _175
REMARK   77  A    between atoms: _180  and  _182
REMARK   78  A    between atoms: _182  and  _183
REMARK   79  A    between atoms: _182  and  _185
REMARK   80  A    between atoms: _185  and  _186
REMARK   81  A    between atoms: _189  and  _191
REMARK   82  A    between atoms: _191  and  _192
REMARK   83  A    between atoms: _191  and  _194
REMARK   84  A    between atoms: _194  and  _195
REMARK   85  A    between atoms: _198  and  _200
REMARK   86  A    between atoms: _200  and  _201
REMARK   87  A    between atoms: _200  and  _203
REMARK   88  A    between atoms: _203  and  _204
REMARK   89  A    between atoms: _207  and  _209
REMARK   90  A    between atoms: _209  and  _210
REMARK   91  A    between atoms: _209  and  _212
REMARK   92  A    between atoms: _212  and  _213
REMARK   93  A    between atoms: _213  and  _214
REMARK   94  A    between atoms: _214  and  _215
REMARK   95  A    between atoms: _224  and  _226
REMARK   96  A    between atoms: _226  and  _227
REMARK   97  A    between atoms: _226  and  _229
REMARK   98  A    between atoms: _229  and  _230
REMARK   99  A    between atoms: _233  and  _235
REMARK  100  A    between atoms: _235  and  _236
REMARK  101  A    between atoms: _235  and  _238
REMARK  102  A    between atoms: _238  and  _239
REMARK  103  A    between atoms: _239  and  _240
REMARK  104  A    between atoms: _240  and  _241
REMARK  105  A    between atoms: _241  and  _242
REMARK  106  A    between atoms: _246  and  _248
REMARK  107  A    between atoms: _248  and  _249
REMARK  108  A    between atoms: _248  and  _251
REMARK  109  A    between atoms: _251  and  _252
REMARK  110  A    between atoms: _252  and  _253
REMARK  111  A    between atoms: _255  and  _257
REMARK  112  A    between atoms: _257  and  _258
REMARK  113  A    between atoms: _257  and  _260
REMARK  114  A    between atoms: _260  and  _261
REMARK  115  A    between atoms: _261  and  _262
REMARK  116  A    between atoms: _265  and  _267
REMARK  117  A    between atoms: _267  and  _268
REMARK  118  A    between atoms: _267  and  _270
REMARK  119  A    between atoms: _272  and  _274
REMARK  120  A    between atoms: _274  and  _275
REMARK  121  A    between atoms: _274  and  _277
REMARK  122  A    between atoms: _277  and  _278
REMARK  123  A    between atoms: _281  and  _283
REMARK  124  A    between atoms: _283  and  _284
REMARK  125  A    between atoms: _283  and  _286
REMARK  126  A    between atoms: _286  and  _287
REMARK  127  A    between atoms: _290  and  _292
REMARK  128  A    between atoms: _292  and  _293
REMARK  129  A    between atoms: _292  and  _295
REMARK  130  A    between atoms: _295  and  _296
REMARK  131  A    between atoms: _301  and  _302
REMARK  132  A    between atoms: _304  and  _306
REMARK  133  A    between atoms: _306  and  _307
REMARK  134  A    between atoms: _306  and  _309
REMARK  135  A    between atoms: _309  and  _310
REMARK  136  A    between atoms: _313  and  _315
REMARK  137  A    between atoms: _315  and  _316
REMARK  138  A    between atoms: _315  and  _318
REMARK  139  A    between atoms: _320  and  _322
REMARK  140  A    between atoms: _322  and  _323
REMARK  141  A    between atoms: _322  and  _325
REMARK  142  A    between atoms: _325  and  _326
REMARK  143  A    between atoms: _329  and  _331
REMARK  144  A    between atoms: _331  and  _332
REMARK  145  A    between atoms: _334  and  _336
REMARK  146  A    between atoms: _336  and  _337
REMARK  147  A    between atoms: _336  and  _339
REMARK  148  A    between atoms: _339  and  _340
REMARK  149  A    between atoms: _340  and  _341
REMARK  150  A    between atoms: _341  and  _342
REMARK  151  A    between atoms: _342  and  _343
REMARK  152  A    between atoms: _347  and  _349
REMARK  153  A    between atoms: _349  and  _350
REMARK  154  A    between atoms: _349  and  _352
REMARK  155  A    between atoms: _352  and  _353
REMARK  156  A    between atoms: _358  and  _360
REMARK  157  A    between atoms: _360  and  _361
REMARK  158  A    between atoms: _360  and  _363
REMARK  159  A    between atoms: _363  and  _364
REMARK  160  A    between atoms: _367  and  _369
REMARK  161  A    between atoms: _369  and  _370
REMARK  162  A    between atoms: _369  and  _372
REMARK  163  A    between atoms: _372  and  _373
REMARK  164  A    between atoms: _383  and  _385
REMARK  165  A    between atoms: _385  and  _386
REMARK  166  A    between atoms: _385  and  _388
REMARK  167  A    between atoms: _388  and  _389
REMARK  168  A    between atoms: _389  and  _390
REMARK  169  A    between atoms: _390  and  _391
REMARK  170  A    between atoms: _391  and  _392
REMARK  171  A    between atoms: _397  and  _398
REMARK  172  A    between atoms: _403  and  _405
REMARK  173  A    between atoms: _405  and  _406
REMARK  174  A    between atoms: _409  and  _411
REMARK  175  A    between atoms: _411  and  _412
REMARK  176  A    between atoms: _411  and  _414
REMARK  177  A    between atoms: _417  and  _419
REMARK  178  A    between atoms: _419  and  _420
REMARK  179  A    between atoms: _419  and  _422
REMARK  180  A    between atoms: _422  and  _423
REMARK  181  A    between atoms: _423  and  _424
REMARK  182  A    between atoms: _427  and  _429
REMARK  183  A    between atoms: _429  and  _430
REMARK  184  A    between atoms: _433  and  _435
REMARK  185  A    between atoms: _435  and  _436
REMARK  186  A    between atoms: _435  and  _438
REMARK  187  A    between atoms: _438  and  _439
REMARK  188  A    between atoms: _444  and  _445
REMARK  189  A    between atoms: _447  and  _449
REMARK  190  A    between atoms: _449  and  _450
REMARK  191  A    between atoms: _452  and  _454
REMARK  192  A    between atoms: _454  and  _455
REMARK  193  A    between atoms: _454  and  _457
REMARK  194  A    between atoms: _457  and  _458
REMARK  195  A    between atoms: _458  and  _459
REMARK  196  A    between atoms: _462  and  _464
REMARK  197  A    between atoms: _464  and  _465
REMARK  198  A    between atoms: _464  and  _467
REMARK  199  A    between atoms: _467  and  _468
REMARK  200  A    between atoms: _474  and  _476
REMARK  201  A    between atoms: _476  and  _477
REMARK  202  A    between atoms: _476  and  _479
REMARK  203  A    between atoms: _479  and  _480
REMARK  204  A    between atoms: _483  and  _485
REMARK  205  A    between atoms: _485  and  _486
REMARK  206  A    between atoms: _485  and  _488
REMARK  207  A    between atoms: _488  and  _489
REMARK  208  A    between atoms: _489  and  _490
REMARK  209  A    between atoms: _492  and  _494
REMARK  210  A    between atoms: _494  and  _495
REMARK  211  A    between atoms: _494  and  _497
REMARK  212  A    between atoms: _497  and  _498
REMARK  213  A    between atoms: _504  and  _506
REMARK  214  A    between atoms: _506  and  _507
REMARK  215  A    between atoms: _506  and  _509
REMARK  216  A    between atoms: _509  and  _510
REMARK  217  A    between atoms: _510  and  _511
REMARK  218  A    between atoms: _514  and  _516
REMARK  219  A    between atoms: _516  and  _517
REMARK  220  A    between atoms: _516  and  _519
REMARK  221  A    between atoms: _519  and  _520
REMARK  222  A    between atoms: _523  and  _525
REMARK  223  A    between atoms: _525  and  _526
REMARK  224  A    between atoms: _525  and  _528
REMARK  225  A    between atoms: _528  and  _529
REMARK  226  A    between atoms: _532  and  _534
REMARK  227  A    between atoms: _534  and  _535
REMARK  228  A    between atoms: _534  and  _537
REMARK  229  A    between atoms: _537  and  _538
REMARK  230  A    between atoms: _544  and  _546
REMARK  231  A    between atoms: _546  and  _547
REMARK  232  A    between atoms: _546  and  _549
REMARK  233  A    between atoms: _552  and  _554
REMARK  234  A    between atoms: _554  and  _555
REMARK  235  A    between atoms: _559  and  _560
REMARK  236  A    between atoms: _565  and  _567
REMARK  237  A    between atoms: _567  and  _568
REMARK  238  A    between atoms: _567  and  _570
REMARK  239  A    between atoms: _570  and  _571
REMARK  240  A    between atoms: _574  and  _576
REMARK  241  A    between atoms: _576  and  _577
REMARK  242  A    between atoms: _576  and  _579
REMARK  243  A    between atoms: _579  and  _580
REMARK  244  A    between atoms: _587  and  _588
REMARK  245  A    between atoms: _593  and  _595
REMARK  246  A    between atoms: _595  and  _596
REMARK  247  A    between atoms: _595  and  _598
REMARK  248  A    between atoms: _601  and  _603
REMARK  249  A    between atoms: _603  and  _604
REMARK  250  A    between atoms: _607  and  _609
REMARK  251  A    between atoms: _609  and  _610
REMARK  252  A    between atoms: _609  and  _612
REMARK  253  A    between atoms: _612  and  _613
REMARK  254  A    between atoms: _618  and  _619
REMARK  255  A    between atoms: _621  and  _623
REMARK  256  A    between atoms: _623  and  _624
REMARK  257  A    between atoms: _623  and  _626
REMARK  258  A    between atoms: _626  and  _627
REMARK  259  A    between atoms: _632  and  _634
REMARK  260  A    between atoms: _634  and  _635
REMARK  261  A    between atoms: _634  and  _637
REMARK  262  A    between atoms: _637  and  _638
REMARK  263  A    between atoms: _641  and  _643
REMARK  264  A    between atoms: _643  and  _644
REMARK  265  A    between atoms: _643  and  _646
REMARK  266  A    between atoms: _646  and  _647
REMARK  267  A    between atoms: _650  and  _652
REMARK  268  A    between atoms: _652  and  _653
REMARK  269  A    between atoms: _652  and  _655
REMARK  270  A    between atoms: _655  and  _656
REMARK  271  A    between atoms: _656  and  _657
REMARK  272  A    between atoms: _657  and  _658
REMARK  273  A    between atoms: _658  and  _659
REMARK  274  A    between atoms: _663  and  _665
REMARK  275  A    between atoms: _665  and  _666
REMARK  276  A    between atoms: _665  and  _668
REMARK  277  A    between atoms: _668  and  _669
REMARK  278  A    between atoms: _675  and  _677
REMARK  279  A    between atoms: _677  and  _678
REMARK  280  A    between atoms: _677  and  _680
REMARK  281  A    between atoms: _680  and  _681
REMARK  282  A    between atoms: _684  and  _686
REMARK  283  A    between atoms: _686  and  _687
REMARK  284  A    between atoms: _686  and  _689
REMARK  285  A    between atoms: _689  and  _690
REMARK  286  A    between atoms: _692  and  _694
REMARK  287  A    between atoms: _694  and  _695
REMARK  288  A    between atoms: _694  and  _697
REMARK  289  A    between atoms: _697  and  _698
REMARK  290  A    between atoms: _701  and  _703
REMARK  291  A    between atoms: _703  and  _704
REMARK  292  A    between atoms: _703  and  _706
REMARK  293  A    between atoms: _706  and  _707
REMARK  294  A    between atoms: _707  and  _708
REMARK  295  A    between atoms: _708  and  _709
REMARK  296  A    between atoms: _718  and  _720
REMARK  297  A    between atoms: _720  and  _721
REMARK  298  A    between atoms: _720  and  _723
REMARK  299  A    between atoms: _723  and  _724
REMARK  300  A    between atoms: _724  and  _725
REMARK  301  A    between atoms: _725  and  _726
REMARK  302  A    between atoms: _726  and  _727
REMARK  303  A    between atoms: _731  and  _733
REMARK  304  A    between atoms: _733  and  _734
REMARK  305  A    between atoms: _733  and  _736
REMARK  306  A    between atoms: _736  and  _737
REMARK  307  A    between atoms: _740  and  _742
REMARK  308  A    between atoms: _742  and  _743
REMARK  309  A    between atoms: _742  and  _745
REMARK  310  A    between atoms: _745  and  _746
REMARK  311  A    between atoms: _746  and  _747
REMARK  312  A    between atoms: _749  and  _751
REMARK  313  A    between atoms: _751  and  _752
REMARK  314  A    between atoms: _751  and  _754
REMARK  315  A    between atoms: _757  and  _759
REMARK  316  A    between atoms: _759  and  _760
REMARK  317  A    between atoms: _759  and  _762
REMARK  318  A    between atoms: _762  and  _763
REMARK                            x       y       z     vdW  Elec       q    Type
REMARK                         _______ _______ _______ _____ _____    ______ ____
ROOT
ATOM      1  CA  ASP A   1      18.228   2.470  -0.373  0.00  0.00    +0.144 C 
ENDROOT
BRANCH   1   2
ATOM      2  N   ASP A   1      18.059   1.117  -0.925  0.00  0.00    -0.239 NA
ATOM      3  H   ASP A   1      18.481   0.312  -0.420  0.00  0.00    +0.142 HD
ENDBRANCH   1   2
BRANCH   1   4
ATOM      4  C   ASP A   1      19.673   2.899  -0.637  0.00  0.00    +0.225 C 
ATOM      5  O   ASP A   1      20.590   2.116  -0.407  0.00  0.00    -0.287 OA
ENDBRANCH   1   4
BRANCH   1   6
ATOM      6  CB  ASP A   1      17.938   2.503   1.123  0.00  0.00    +0.139 C 
BRANCH   6   7
ATOM      7  CG  ASP A   1      16.472   2.529   1.446  0.00  0.00    +0.367 C 
ATOM      8  OD2 ASP A   1      16.062   1.651   2.187  0.00  0.00    -0.246 OA
ATOM      9  OD1 ASP A   1      15.745   3.406   0.964  0.00  0.00    -0.246 OA
ENDBRANCH   6   7
ENDBRANCH   1   6
TORSDOF 4
REMARK  Name = ../refined-set-2016/4omk/4omk_pocket.pdb
REMARK  318 active torsions:
REMARK  status: ('A' for Active; 'I' for Inactive)
REMARK    1  A    between atoms: _1  and  _3
REMARK    2  A    between atoms: _3  and  _4
REMARK    3  A    between atoms: _3  and  _6
REMARK    4  A    between atoms: _6  and  _7
REMARK    5  A    between atoms: _10  and  _12
REMARK    6  A    between atoms: _12  and  _13
REMARK    7  A    between atoms: _12  and  _15
REMARK    8  A    between atoms: _15  and  _16
REMARK    9  A    between atoms: _21  and  _22
REMARK   10  A    between atoms: _24  and  _26
REMARK   11  A    between atoms: _26  and  _27
REMARK   12  A    between atoms: _26  and  _29
REMARK   13  A    between atoms: _29  and  _30
REMARK   14  A    between atoms: _33  and  _35
REMARK   15  A    between atoms: _35  and  _36
REMARK   16  A    between atoms: _35  and  _38
REMARK   17  A    between atoms: _38  and  _39
REMARK   18  A    between atoms: _41  and  _43
REMARK   19  A    between atoms: _43  and  _44
REMARK   20  A    between atoms: _43  and  _46
REMARK   21  A    between atoms: _46  and  _47
REMARK   22  A    between atoms: _57  and  _59
REMARK   23  A    between atoms: _59  and  _60
REMARK   24  A    between atoms: _59  and  _62
REMARK   25  A    between atoms: _62  and  _63
REMARK   26  A    between atoms: _66  and  _68
REMARK   27  A    between atoms: _68  and  _69
REMARK   28  A    between atoms: _68  and  _71
REMARK   29  A    between atoms: _71  and  _72
REMARK   30  A    between atoms: _75  and  _77
REMARK   31  A    between atoms: _77  and  _78
REMARK   32  A    between atoms: _77  and  _80
REMARK   33  A    between atoms: _80  and  _81
REMARK   34  A    between atoms: _84  and  _86
REMARK   35  A    between atoms: _86  and  _87
REMARK   36  A    between atoms: _86  and  _89
REMARK   37  A    between atoms: _89  and  _90
REMARK   38  A    between atoms: _93  and  _95
REMARK   39  A    between atoms: _95  and  _96
REMARK   40  A    between atoms: _99  and  _101
REMARK   41  A    between atoms: _101  and  _102
REMARK   42  A    between atoms: _101  and  _104
REMARK   43  A    between atoms: _104  and  _105
REMARK   44  A    between atoms: _105  and  _106
REMARK   45  A    between atoms: _106  and  _107
REMARK   46  A    between atoms: _107  and  _108
REMARK   47  A    between atoms: _112  and  _114
REMARK   48  A    between atoms: _114  and  _115
REMARK   49  A    between atoms: _117  and  _119
REMARK   50  A    between atoms: _119  and  _120
REMARK   51  A    between atoms: _119  and  _122
REMARK   52  A    between atoms: _122  and  _123
REMARK   53  A    between atoms: _126  and  _128
REMARK   54  A    between atoms: _128  and  _129
REMARK   55  A    between atoms: _128  and  _131
REMARK   56  A    between atoms: _131  and  _132
REMARK   57  A    between atoms: _135  and  _137
REMARK   58  A    between atoms: _137  and  _138
REMARK   59  A    between atoms: _137  and  _140
REMARK   60  A    between atoms: _140  and  _141
REMARK   61  A    between atoms: _147  and  _149
REMARK   62  A    between atoms: _149  and  _150
REMARK   63  A    between atoms: _149  and  _152
REMARK   64  A    between atoms: _152  and  _153
REMARK   65  A    between atoms: _155  and  _157
REMARK   66  A    between atoms: _157  and  _158
REMARK   67  A    between atoms: _157  and  _160
REMARK   68  A    between atoms: _160  and  _161
REMARK   69  A    between atoms: _161  and  _162
REMARK   70  A    between atoms: _162  and  _163
REMARK   71  A    between atoms: _163  and  _164
REMARK   72  A    between atoms: _168  and  _170
REMARK   73  A    between atoms: _170  and  _171
REMARK   74  A    between atoms: _170  and  _173
REMARK   75  A    between atoms: _173  and  _174
REMARK   76  A    between atoms: _174  and  _175
REMARK   77  A    between atoms: _180  and  _182
REMARK   78  A    between atoms: _182  and  _183
REMARK   79  A    between atoms: _182  and  _185
REMARK   80  A    between atoms: _185  and  _186
REMARK   81  A    between atoms: _189  and  _191
REMARK   82  A    between atoms: _191  and  _192
REMARK   83  A    between atoms: _191  and  _194
REMARK   84  A    between atoms: _194  and  _195
REMARK   85  A    between atoms: _198  and  _200
REMARK   86  A    between atoms: _200  and  _201
REMARK   87  A    between atoms: _200  and  _203
REMARK   88  A    between atoms: _203  and  _204
REMARK   89  A    between atoms: _207  and  _209
REMARK   90  A    between atoms: _209  and  _210
REMARK   91  A    between atoms: _209  and  _212
REMARK   92  A    between atoms: _212  and  _213
REMARK   93  A    between atoms: _213  and  _214
REMARK   94  A    between atoms: _214  and  _215
REMARK   95  A    between atoms: _224  and  _226
REMARK   96  A    between atoms: _226  and  _227
REMARK   97  A    between atoms: _226  and  _229
REMARK   98  A    between atoms: _229  and  _230
REMARK   99  A    between atoms: _233  and  _235
REMARK  100  A    between atoms: _235  and  _236
REMARK  101  A    between atoms: _235  and  _238
REMARK  102  A    between atoms: _238  and  _239
REMARK  103  A    between atoms: _239  and  _240
REMARK  104  A    between atoms: _240  and  _241
REMARK  105  A    between atoms: _241  and  _242
REMARK  106  A    between atoms: _246  and  _248
REMARK  107  A    between atoms: _248  and  _249
REMARK  108  A    between atoms: _248  and  _251
REMARK  109  A    between atoms: _251  and  _252
REMARK  110  A    between atoms: _252  and  _253
REMARK  111  A    between atoms: _255  and  _257
REMARK  112  A    between atoms: _257  and  _258
REMARK  113  A    between atoms: _257  and  _260
REMARK  114  A    between atoms: _260  and  _261
REMARK  115  A    between atoms: _261  and  _262
REMARK  116  A    between atoms: _265  and  _267
REMARK  117  A    between atoms: _267  and  _268
REMARK  118  A    between atoms: _267  and  _270
REMARK  119  A    between atoms: _272  and  _274
REMARK  120  A    between atoms: _274  and  _275
REMARK  121  A    between atoms: _274  and  _277
REMARK  122  A    between atoms: _277  and  _278
REMARK  123  A    between atoms: _281  and  _283
REMARK  124  A    between atoms: _283  and  _284
REMARK  125  A    between atoms: _283  and  _286
REMARK  126  A    between atoms: _286  and  _287
REMARK  127  A    between atoms: _290  and  _292
REMARK  128  A    between atoms: _292  and  _293
REMARK  129  A    between atoms: _292  and  _295
REMARK  130  A    between atoms: _295  and  _296
REMARK  131  A    between atoms: _301  and  _302
REMARK  132  A    between atoms: _304  and  _306
REMARK  133  A    between atoms: _306  and  _307
REMARK  134  A    between atoms: _306  and  _309
REMARK  135  A    between atoms: _309  and  _310
REMARK  136  A    between atoms: _313  and  _315
REMARK  137  A    between atoms: _315  and  _316
REMARK  138  A    between atoms: _315  and  _318
REMARK  139  A    between atoms: _320  and  _322
REMARK  140  A    between atoms: _322  and  _323
REMARK  141  A    between atoms: _322  and  _325
REMARK  142  A    between atoms: _325  and  _326
REMARK  143  A    between atoms: _329  and  _331
REMARK  144  A    between atoms: _331  and  _332
REMARK  145  A    between atoms: _334  and  _336
REMARK  146  A    between atoms: _336  and  _337
REMARK  147  A    between atoms: _336  and  _339
REMARK  148  A    between atoms: _339  and  _340
REMARK  149  A    between atoms: _340  and  _341
REMARK  150  A    between atoms: _341  and  _342
REMARK  151  A    between atoms: _342  and  _343
REMARK  152  A    between atoms: _347  and  _349
REMARK  153  A    between atoms: _349  and  _350
REMARK  154  A    between atoms: _349  and  _352
REMARK  155  A    between atoms: _352  and  _353
REMARK  156  A    between atoms: _358  and  _360
REMARK  157  A    between atoms: _360  and  _361
REMARK  158  A    between atoms: _360  and  _363
REMARK  159  A    between atoms: _363  and  _364
REMARK  160  A    between atoms: _367  and  _369
REMARK  161  A    between atoms: _369  and  _370
REMARK  162  A    between atoms: _369  and  _372
REMARK  163  A    between atoms: _372  and  _373
REMARK  164  A    between atoms: _383  and  _385
REMARK  165  A    between atoms: _385  and  _386
REMARK  166  A    between atoms: _385  and  _388
REMARK  167  A    between atoms: _388  and  _389
REMARK  168  A    between atoms: _389  and  _390
REMARK  169  A    between atoms: _390  and  _391
REMARK  170  A    between atoms: _391  and  _392
REMARK  171  A    between atoms: _397  and  _398
REMARK  172  A    between atoms: _403  and  _405
REMARK  173  A    between atoms: _405  and  _406
REMARK  174  A    between atoms: _409  and  _411
REMARK  175  A    between atoms: _411  and  _412
REMARK  176  A    between atoms: _411  and  _414
REMARK  177  A    between atoms: _417  and  _419
REMARK  178  A    between atoms: _419  and  _420
REMARK  179  A    between atoms: _419  and  _422
REMARK  180  A    between atoms: _422  and  _423
REMARK  181  A    between atoms: _423  and  _424
REMARK  182  A    between atoms: _427  and  _429
REMARK  183  A    between atoms: _429  and  _430
REMARK  184  A    between atoms: _433  and  _435
REMARK  185  A    between atoms: _435  and  _436
REMARK  186  A    between atoms: _435  and  _438
REMARK  187  A    between atoms: _438  and  _439
REMARK  188  A    between atoms: _444  and  _445
REMARK  189  A    between atoms: _447  and  _449
REMARK  190  A    between atoms: _449  and  _450
REMARK  191  A    between atoms: _452  and  _454
REMARK  192  A    between atoms: _454  and  _455
REMARK  193  A    between atoms: _454  and  _457
REMARK  194  A    between atoms: _457  and  _458
REMARK  195  A    between atoms: _458  and  _459
REMARK  196  A    between atoms: _462  and  _464
REMARK  197  A    between atoms: _464  and  _465
REMARK  198  A    between atoms: _464  and  _467
REMARK  199  A    between atoms: _467  and  _468
REMARK  200  A    between atoms: _474  and  _476
REMARK  201  A    between atoms: _476  and  _477
REMARK  202  A    between atoms: _476  and  _479
REMARK  203  A    between atoms: _479  and  _480
REMARK  204  A    between atoms: _483  and  _485
REMARK  205  A    between atoms: _485  and  _486
REMARK  206  A    between atoms: _485  and  _488
REMARK  207  A    between atoms: _488  and  _489
REMARK  208  A    between atoms: _489  and  _490
REMARK  209  A    between atoms: _492  and  _494
REMARK  210  A    between atoms: _494  and  _495
REMARK  211  A    between atoms: _494  and  _497
REMARK  212  A    between atoms: _497  and  _498
REMARK  213  A    between atoms: _504  and  _506
REMARK  214  A    between atoms: _506  and  _507
REMARK  215  A    between atoms: _506  and  _509
REMARK  216  A    between atoms: _509  and  _510
REMARK  217  A    between atoms: _510  and  _511
REMARK  218  A    between atoms: _514  and  _516
REMARK  219  A    between atoms: _516  and  _517
REMARK  220  A    between atoms: _516  and  _519
REMARK  221  A    between atoms: _519  and  _520
REMARK  222  A    between atoms: _523  and  _525
REMARK  223  A    between atoms: _525  and  _526
REMARK  224  A    between atoms: _525  and  _528
REMARK  225  A    between atoms: _528  and  _529
REMARK  226  A    between atoms: _532  and  _534
REMARK  227  A    between atoms: _534  and  _535
REMARK  228  A    between atoms: _534  and  _537
REMARK  229  A    between atoms: _537  and  _538
REMARK  230  A    between atoms: _544  and  _546
REMARK  231  A    between atoms: _546  and  _547
REMARK  232  A    between atoms: _546  and  _549
REMARK  233  A    between atoms: _552  and  _554
REMARK  234  A    between atoms: _554  and  _555
REMARK  235  A    between atoms: _559  and  _560
REMARK  236  A    between atoms: _565  and  _567
REMARK  237  A    between atoms: _567  and  _568
REMARK  238  A    between atoms: _567  and  _570
REMARK  239  A    between atoms: _570  and  _571
REMARK  240  A    between atoms: _574  and  _576
REMARK  241  A    between atoms: _576  and  _577
REMARK  242  A    between atoms: _576  and  _579
REMARK  243  A    between atoms: _579  and  _580
REMARK  244  A    between atoms: _587  and  _588
REMARK  245  A    between atoms: _593  and  _595
REMARK  246  A    between atoms: _595  and  _596
REMARK  247  A    between atoms: _595  and  _598
REMARK  248  A    between atoms: _601  and  _603
REMARK  249  A    between atoms: _603  and  _604
REMARK  250  A    between atoms: _607  and  _609
REMARK  251  A    between atoms: _609  and  _610
REMARK  252  A    between atoms: _609  and  _612
REMARK  253  A    between atoms: _612  and  _613
REMARK  254  A    between atoms: _618  and  _619
REMARK  255  A    between atoms: _621  and  _623
REMARK  256  A    between atoms: _623  and  _624
REMARK  257  A    between atoms: _623  and  _626
REMARK  258  A    between atoms: _626  and  _627
REMARK  259  A    between atoms: _632  and  _634
REMARK  260  A    between atoms: _634  and  _635
REMARK  261  A    between atoms: _634  and  _637
REMARK  262  A    between atoms: _637  and  _638
REMARK  263  A    between atoms: _641  and  _643
REMARK  264  A    between atoms: _643  and  _644
REMARK  265  A    between atoms: _643  and  _646
REMARK  266  A    between atoms: _646  and  _647
REMARK  267  A    between atoms: _650  and  _652
REMARK  268  A    between atoms: _652  and  _653
REMARK  269  A    between atoms: _652  and  _655
REMARK  270  A    between atoms: _655  and  _656
REMARK  271  A    between atoms: _656  and  _657
REMARK  272  A    between atoms: _657  and  _658
REMARK  273  A    between atoms: _658  and  _659
REMARK  274  A    between atoms: _663  and  _665
REMARK  275  A    between atoms: _665  and  _666
REMARK  276  A    between atoms: _665  and  _668
REMARK  277  A    between atoms: _668  and  _669
REMARK  278  A    between atoms: _675  and  _677
REMARK  279  A    between atoms: _677  and  _678
REMARK  280  A    between atoms: _677  and  _680
REMARK  281  A    between atoms: _680  and  _681
REMARK  282  A    between atoms: _684  and  _686
REMARK  283  A    between atoms: _686  and  _687
REMARK  284  A    between atoms: _686  and  _689
REMARK  285  A    between atoms: _689  and  _690
REMARK  286  A    between atoms: _692  and  _694
REMARK  287  A    between atoms: _694  and  _695
REMARK  288  A    between atoms: _694  and  _697
REMARK  289  A    between atoms: _697  and  _698
REMARK  290  A    between atoms: _701  and  _703
REMARK  291  A    between atoms: _703  and  _704
REMARK  292  A    between atoms: _703  and  _706
REMARK  293  A    between atoms: _706  and  _707
REMARK  294  A    between atoms: _707  and  _708
REMARK  295  A    between atoms: _708  and  _709
REMARK  296  A    between atoms: _718  and  _720
REMARK  297  A    between atoms: _720  and  _721
REMARK  298  A    between atoms: _720  and  _723
REMARK  299  A    between atoms: _723  and  _724
REMARK  300  A    between atoms: _724  and  _725
REMARK  301  A    between atoms: _725  and  _726
REMARK  302  A    between atoms: _726  and  _727
REMARK  303  A    between atoms: _731  and  _733
REMARK  304  A    between atoms: _733  and  _734
REMARK  305  A    between atoms: _733  and  _736
REMARK  306  A    between atoms: _736  and  _737
REMARK  307  A    between atoms: _740  and  _742
REMARK  308  A    between atoms: _742  and  _743
REMARK  309  A    between atoms: _742  and  _745
REMARK  310  A    between atoms: _745  and  _746
REMARK  311  A    between atoms: _746  and  _747
REMARK  312  A    between atoms: _749  and  _751
REMARK  313  A    between atoms: _751  and  _752
REMARK  314  A    between atoms: _751  and  _754
REMARK  315  A    between atoms: _757  and  _759
REMARK  316  A    between atoms: _759  and  _760
REMARK  317  A    between atoms: _759  and  _762
REMARK  318  A    between atoms: _762  and  _763
REMARK                            x       y       z     vdW  Elec       q    Type
REMARK                         _______ _______ _______ _____ _____    ______ ____
ROOT
ATOM      1  CA  ILE A   1      22.243   6.869   1.398  0.00  0.00    +0.133 C 
ENDROOT
BRANCH   1   2
ATOM      2  N   ILE A   1      22.167   5.737   0.455  0.00  0.00    -0.239 NA
ATOM      3  H   ILE A   1      22.634   4.837   0.688  0.00  0.00    +0.142 HD
ENDBRANCH   1   2
BRANCH   1   4
ATOM      4  CB  ILE A   1      22.546   6.375   2.833  0.00  0.00    +0.023 C 
ATOM      5  CG2 ILE A   1      22.654   7.551   3.796  0.00  0.00    +0.002 C 
BRANCH   4   6
ATOM      6  CG1 ILE A   1      21.502   5.346   3.299  0.00  0.00    +0.002 C 
ATOM      7  CD1 ILE A   1      20.056   5.780   3.126  0.00  0.00    +0.000 C 
ENDBRANCH   4   6
ENDBRANCH   1   4
BRANCH   1   8
ATOM      8  C   ILE A   1      23.293   7.917   1.001  0.00  0.00    +0.224 C 
ATOM      9  O   ILE A   1      23.025   9.119   1.080  0.00  0.00    -0.287 OA
ENDBRANCH   1   8
TORSDOF 4
REMARK  Name = ../refined-set-2016/4omk/4omk_pocket.pdb
REMARK  318 active torsions:
REMARK  status: ('A' for Active; 'I' for Inactive)
REMARK    1  A    between atoms: _1  and  _3
REMARK    2  A    between atoms: _3  and  _4
REMARK    3  A    between atoms: _3  and  _6
REMARK    4  A    between atoms: _6  and  _7
REMARK    5  A    between atoms: _10  and  _12
REMARK    6  A    between atoms: _12  and  _13
REMARK    7  A    between atoms: _12  and  _15
REMARK    8  A    between atoms: _15  and  _16
REMARK    9  A    between atoms: _21  and  _22
REMARK   10  A    between atoms: _24  and  _26
REMARK   11  A    between atoms: _26  and  _27
REMARK   12  A    between atoms: _26  and  _29
REMARK   13  A    between atoms: _29  and  _30
REMARK   14  A    between atoms: _33  and  _35
REMARK   15  A    between atoms: _35  and  _36
REMARK   16  A    between atoms: _35  and  _38
REMARK   17  A    between atoms: _38  and  _39
REMARK   18  A    between atoms: _41  and  _43
REMARK   19  A    between atoms: _43  and  _44
REMARK   20  A    between atoms: _43  and  _46
REMARK   21  A    between atoms: _46  and  _47
REMARK   22  A    between atoms: _57  and  _59
REMARK   23  A    between atoms: _59  and  _60
REMARK   24  A    between atoms: _59  and  _62
REMARK   25  A    between atoms: _62  and  _63
REMARK   26  A    between atoms: _66  and  _68
REMARK   27  A    between atoms: _68  and  _69
REMARK   28  A    between atoms: _68  and  _71
REMARK   29  A    between atoms: _71  and  _72
REMARK   30  A    between atoms: _75  and  _77
REMARK   31  A    between atoms: _77  and  _78
REMARK   32  A    between atoms: _77  and  _80
REMARK   33  A    between atoms: _80  and  _81
REMARK   34  A    between atoms: _84  and  _86
REMARK   35  A    between atoms: _86  and  _87
REMARK   36  A    between atoms: _86  and  _89
REMARK   37  A    between atoms: _89  and  _90
REMARK   38  A    between atoms: _93  and  _95
REMARK   39  A    between atoms: _95  and  _96
REMARK   40  A    between atoms: _99  and  _101
REMARK   41  A    between atoms: _101  and  _102
REMARK   42  A    between atoms: _101  and  _104
REMARK   43  A    between atoms: _104  and  _105
REMARK   44  A    between atoms: _105  and  _106
REMARK   45  A    between atoms: _106  and  _107
REMARK   46  A    between atoms: _107  and  _108
REMARK   47  A    between atoms: _112  and  _114
REMARK   48  A    between atoms: _114  and  _115
REMARK   49  A    between atoms: _117  and  _119
REMARK   50  A    between atoms: _119  and  _120
REMARK   51  A    between atoms: _119  and  _122
REMARK   52  A    between atoms: _122  and  _123
REMARK   53  A    between atoms: _126  and  _128
REMARK   54  A    between atoms: _128  and  _129
REMARK   55  A    between atoms: _128  and  _131
REMARK   56  A    between atoms: _131  and  _132
REMARK   57  A    between atoms: _135  and  _137
REMARK   58  A    between atoms: _137  and  _138
REMARK   59  A    between atoms: _137  and  _140
REMARK   60  A    between atoms: _140  and  _141
REMARK   61  A    between atoms: _147  and  _149
REMARK   62  A    between atoms: _149  and  _150
REMARK   63  A    between atoms: _149  and  _152
REMARK   64  A    between atoms: _152  and  _153
REMARK   65  A    between atoms: _155  and  _157
REMARK   66  A    between atoms: _157  and  _158
REMARK   67  A    between atoms: _157  and  _160
REMARK   68  A    between atoms: _160  and  _161
REMARK   69  A    between atoms: _161  and  _162
REMARK   70  A    between atoms: _162  and  _163
REMARK   71  A    between atoms: _163  and  _164
REMARK   72  A    between atoms: _168  and  _170
REMARK   73  A    between atoms: _170  and  _171
REMARK   74  A    between atoms: _170  and  _173
REMARK   75  A    between atoms: _173  and  _174
REMARK   76  A    between atoms: _174  and  _175
REMARK   77  A    between atoms: _180  and  _182
REMARK   78  A    between atoms: _182  and  _183
REMARK   79  A    between atoms: _182  and  _185
REMARK   80  A    between atoms: _185  and  _186
REMARK   81  A    between atoms: _189  and  _191
REMARK   82  A    between atoms: _191  and  _192
REMARK   83  A    between atoms: _191  and  _194
REMARK   84  A    between atoms: _194  and  _195
REMARK   85  A    between atoms: _198  and  _200
REMARK   86  A    between atoms: _200  and  _201
REMARK   87  A    between atoms: _200  and  _203
REMARK   88  A    between atoms: _203  and  _204
REMARK   89  A    between atoms: _207  and  _209
REMARK   90  A    between atoms: _209  and  _210
REMARK   91  A    between atoms: _209  and  _212
REMARK   92  A    between atoms: _212  and  _213
REMARK   93  A    between atoms: _213  and  _214
REMARK   94  A    between atoms: _214  and  _215
REMARK   95  A    between atoms: _224  and  _226
REMARK   96  A    between atoms: _226  and  _227
REMARK   97  A    between atoms: _226  and  _229
REMARK   98  A    between atoms: _229  and  _230
REMARK   99  A    between atoms: _233  and  _235
REMARK  100  A    between atoms: _235  and  _236
REMARK  101  A    between atoms: _235  and  _238
REMARK  102  A    between atoms: _238  and  _239
REMARK  103  A    between atoms: _239  and  _240
REMARK  104  A    between atoms: _240  and  _241
REMARK  105  A    between atoms: _241  and  _242
REMARK  106  A    between atoms: _246  and  _248
REMARK  107  A    between atoms: _248  and  _249
REMARK  108  A    between atoms: _248  and  _251
REMARK  109  A    between atoms: _251  and  _252
REMARK  110  A    between atoms: _252  and  _253
REMARK  111  A    between atoms: _255  and  _257
REMARK  112  A    between atoms: _257  and  _258
REMARK  113  A    between atoms: _257  and  _260
REMARK  114  A    between atoms: _260  and  _261
REMARK  115  A    between atoms: _261  and  _262
REMARK  116  A    between atoms: _265  and  _267
REMARK  117  A    between atoms: _267  and  _268
REMARK  118  A    between atoms: _267  and  _270
REMARK  119  A    between atoms: _272  and  _274
REMARK  120  A    between atoms: _274  and  _275
REMARK  121  A    between atoms: _274  and  _277
REMARK  122  A    between atoms: _277  and  _278
REMARK  123  A    between atoms: _281  and  _283
REMARK  124  A    between atoms: _283  and  _284
REMARK  125  A    between atoms: _283  and  _286
REMARK  126  A    between atoms: _286  and  _287
REMARK  127  A    between atoms: _290  and  _292
REMARK  128  A    between atoms: _292  and  _293
REMARK  129  A    between atoms: _292  and  _295
REMARK  130  A    between atoms: _295  and  _296
REMARK  131  A    between atoms: _301  and  _302
REMARK  132  A    between atoms: _304  and  _306
REMARK  133  A    between atoms: _306  and  _307
REMARK  134  A    between atoms: _306  and  _309
REMARK  135  A    between atoms: _309  and  _310
REMARK  136  A    between atoms: _313  and  _315
REMARK  137  A    between atoms: _315  and  _316
REMARK  138  A    between atoms: _315  and  _318
REMARK  139  A    between atoms: _320  and  _322
REMARK  140  A    between atoms: _322  and  _323
REMARK  141  A    between atoms: _322  and  _325
REMARK  142  A    between atoms: _325  and  _326
REMARK  143  A    between atoms: _329  and  _331
REMARK  144  A    between atoms: _331  and  _332
REMARK  145  A    between atoms: _334  and  _336
REMARK  146  A    between atoms: _336  and  _337
REMARK  147  A    between atoms: _336  and  _339
REMARK  148  A    between atoms: _339  and  _340
REMARK  149  A    between atoms: _340  and  _341
REMARK  150  A    between atoms: _341  and  _342
REMARK  151  A    between atoms: _342  and  _343
REMARK  152  A    between atoms: _347  and  _349
REMARK  153  A    between atoms: _349  and  _350
REMARK  154  A    between atoms: _349  and  _352
REMARK  155  A    between atoms: _352  and  _353
REMARK  156  A    between atoms: _358  and  _360
REMARK  157  A    between atoms: _360  and  _361
REMARK  158  A    between atoms: _360  and  _363
REMARK  159  A    between atoms: _363  and  _364
REMARK  160  A    between atoms: _367  and  _369
REMARK  161  A    between atoms: _369  and  _370
REMARK  162  A    between atoms: _369  and  _372
REMARK  163  A    between atoms: _372  and  _373
REMARK  164  A    between atoms: _383  and  _385
REMARK  165  A    between atoms: _385  and  _386
REMARK  166  A    between atoms: _385  and  _388
REMARK  167  A    between atoms: _388  and  _389
REMARK  168  A    between atoms: _389  and  _390
REMARK  169  A    between atoms: _390  and  _391
REMARK  170  A    between atoms: _391  and  _392
REMARK  171  A    between atoms: _397  and  _398
REMARK  172  A    between atoms: _403  and  _405
REMARK  173  A    between atoms: _405  and  _406
REMARK  174  A    between atoms: _409  and  _411
REMARK  175  A    between atoms: _411  and  _412
REMARK  176  A    between atoms: _411  and  _414
REMARK  177  A    between atoms: _417  and  _419
REMARK  178  A    between atoms: _419  and  _420
REMARK  179  A    between atoms: _419  and  _422
REMARK  180  A    between atoms: _422  and  _423
REMARK  181  A    between atoms: _423  and  _424
REMARK  182  A    between atoms: _427  and  _429
REMARK  183  A    between atoms: _429  and  _430
REMARK  184  A    between atoms: _433  and  _435
REMARK  185  A    between atoms: _435  and  _436
REMARK  186  A    between atoms: _435  and  _438
REMARK  187  A    between atoms: _438  and  _439
REMARK  188  A    between atoms: _444  and  _445
REMARK  189  A    between atoms: _447  and  _449
REMARK  190  A    between atoms: _449  and  _450
REMARK  191  A    between atoms: _452  and  _454
REMARK  192  A    between atoms: _454  and  _455
REMARK  193  A    between atoms: _454  and  _457
REMARK  194  A    between atoms: _457  and  _458
REMARK  195  A    between atoms: _458  and  _459
REMARK  196  A    between atoms: _462  and  _464
REMARK  197  A    between atoms: _464  and  _465
REMARK  198  A    between atoms: _464  and  _467
REMARK  199  A    between atoms: _467  and  _468
REMARK  200  A    between atoms: _474  and  _476
REMARK  201  A    between atoms: _476  and  _477
REMARK  202  A    between atoms: _476  and  _479
REMARK  203  A    between atoms: _479  and  _480
REMARK  204  A    between atoms: _483  and  _485
REMARK  205  A    between atoms: _485  and  _486
REMARK  206  A    between atoms: _485  and  _488
REMARK  207  A    between atoms: _488  and  _489
REMARK  208  A    between atoms: _489  and  _490
REMARK  209  A    between atoms: _492  and  _494
REMARK  210  A    between atoms: _494  and  _495
REMARK  211  A    between atoms: _494  and  _497
REMARK  212  A    between atoms: _497  and  _498
REMARK  213  A    between atoms: _504  and  _506
REMARK  214  A    between atoms: _506  and  _507
REMARK  215  A    between atoms: _506  and  _509
REMARK  216  A    between atoms: _509  and  _510
REMARK  217  A    between atoms: _510  and  _511
REMARK  218  A    between atoms: _514  and  _516
REMARK  219  A    between atoms: _516  and  _517
REMARK  220  A    between atoms: _516  and  _519
REMARK  221  A    between atoms: _519  and  _520
REMARK  222  A    between atoms: _523  and  _525
REMARK  223  A    between atoms: _525  and  _526
REMARK  224  A    between atoms: _525  and  _528
REMARK  225  A    between atoms: _528  and  _529
REMARK  226  A    between atoms: _532  and  _534
REMARK  227  A    between atoms: _534  and  _535
REMARK  228  A    between atoms: _534  and  _537
REMARK  229  A    between atoms: _537  and  _538
REMARK  230  A    between atoms: _544  and  _546
REMARK  231  A    between atoms: _546  and  _547
REMARK  232  A    between atoms: _546  and  _549
REMARK  233  A    between atoms: _552  and  _554
REMARK  234  A    between atoms: _554  and  _555
REMARK  235  A    between atoms: _559  and  _560
REMARK  236  A    between atoms: _565  and  _567
REMARK  237  A    between atoms: _567  and  _568
REMARK  238  A    between atoms: _567  and  _570
REMARK  239  A    between atoms: _570  and  _571
REMARK  240  A    between atoms: _574  and  _576
REMARK  241  A    between atoms: _576  and  _577
REMARK  242  A    between atoms: _576  and  _579
REMARK  243  A    between atoms: _579  and  _580
REMARK  244  A    between atoms: _587  and  _588
REMARK  245  A    between atoms: _593  and  _595
REMARK  246  A    between atoms: _595  and  _596
REMARK  247  A    between atoms: _595  and  _598
REMARK  248  A    between atoms: _601  and  _603
REMARK  249  A    between atoms: _603  and  _604
REMARK  250  A    between atoms: _607  and  _609
REMARK  251  A    between atoms: _609  and  _610
REMARK  252  A    between atoms: _609  and  _612
REMARK  253  A    between atoms: _612  and  _613
REMARK  254  A    between atoms: _618  and  _619
REMARK  255  A    between atoms: _621  and  _623
REMARK  256  A    between atoms: _623  and  _624
REMARK  257  A    between atoms: _623  and  _626
REMARK  258  A    between atoms: _626  and  _627
REMARK  259  A    between atoms: _632  and  _634
REMARK  260  A    between atoms: _634  and  _635
REMARK  261  A    between atoms: _634  and  _637
REMARK  262  A    between atoms: _637  and  _638
REMARK  263  A    between atoms: _641  and  _643
REMARK  264  A    between atoms: _643  and  _644
REMARK  265  A    between atoms: _643  and  _646
REMARK  266  A    between atoms: _646  and  _647
REMARK  267  A    between atoms: _650  and  _652
REMARK  268  A    between atoms: _652  and  _653
REMARK  269  A    between atoms: _652  and  _655
REMARK  270  A    between atoms: _655  and  _656
REMARK  271  A    between atoms: _656  and  _657
REMARK  272  A    between atoms: _657  and  _658
REMARK  273  A    between atoms: _658  and  _659
REMARK  274  A    between atoms: _663  and  _665
REMARK  275  A    between atoms: _665  and  _666
REMARK  276  A    between atoms: _665  and  _668
REMARK  277  A    between atoms: _668  and  _669
REMARK  278  A    between atoms: _675  and  _677
REMARK  279  A    between atoms: _677  and  _678
REMARK  280  A    between atoms: _677  and  _680
REMARK  281  A    between atoms: _680  and  _681
REMARK  282  A    between atoms: _684  and  _686
REMARK  283  A    between atoms: _686  and  _687
REMARK  284  A    between atoms: _686  and  _689
REMARK  285  A    between atoms: _689  and  _690
REMARK  286  A    between atoms: _692  and  _694
REMARK  287  A    between atoms: _694  and  _695
REMARK  288  A    between atoms: _694  and  _697
REMARK  289  A    between atoms: _697  and  _698
REMARK  290  A    between atoms: _701  and  _703
REMARK  291  A    between atoms: _703  and  _704
REMARK  292  A    between atoms: _703  and  _706
REMARK  293  A    between atoms: _706  and  _707
REMARK  294  A    between atoms: _707  and  _708
REMARK  295  A    between atoms: _708  and  _709
REMARK  296  A    between atoms: _718  and  _720
REMARK  297  A    between atoms: _720  and  _721
REMARK  298  A    between atoms: _720  and  _723
REMARK  299  A    between atoms: _723  and  _724
REMARK  300  A    between atoms: _724  and  _725
REMARK  301  A    between atoms: _725  and  _726
REMARK  302  A    between atoms: _726  and  _727
REMARK  303  A    between atoms: _731  and  _733
REMARK  304  A    between atoms: _733  and  _734
REMARK  305  A    between atoms: _733  and  _736
REMARK  306  A    between atoms: _736  and  _737
REMARK  307  A    between atoms: _740  and  _742
REMARK  308  A    between atoms: _742  and  _743
REMARK  309  A    between atoms: _742  and  _745
REMARK  310  A    between atoms: _745  and  _746
REMARK  311  A    between atoms: _746  and  _747
REMARK  312  A    between atoms: _749  and  _751
REMARK  313  A    between atoms: _751  and  _752
REMARK  314  A    between atoms: _751  and  _754
REMARK  315  A    between atoms: _757  and  _759
REMARK  316  A    between atoms: _759  and  _760
REMARK  317  A    between atoms: _759  and  _762
REMARK  318  A    between atoms: _762  and  _763
REMARK                            x       y       z     vdW  Elec       q    Type
REMARK                         _______ _______ _______ _____ _____    ______ ____
ROOT
ATOM      1  C   LYS A   4      18.895  19.830   2.014  0.00  0.00    +0.241 C 
ATOM      2  O   LYS A   4      17.909  20.573   2.157  0.00  0.00    -0.273 OA
ATOM      3  N   GLY A   5      19.388  19.532   0.811  0.00  0.00    -0.295 N 
ATOM      4  H   GLY A   5      20.232  18.929   0.746  0.00  0.00    +0.150 HD
ENDROOT
BRANCH   3   5
ATOM      5  CA  GLY A   5      18.778  20.027  -0.409  0.00  0.00    +0.176 C 
BRANCH   5   6
ATOM      6  C   GLY A   5      17.312  19.608  -0.525  0.00  0.00    +0.243 C 
ATOM      7  N   LEU A   6      17.015  18.376  -0.144  0.00  0.00    -0.297 N 
ATOM      8  H   LEU A   6      17.767  17.751   0.209  0.00  0.00    +0.150 HD
ATOM      9  O   GLY A   5      16.446  20.377  -0.959  0.00  0.00    -0.273 OA
BRANCH   7  10
ATOM     10  CA  LEU A   6      15.639  17.885  -0.214  0.00  0.00    +0.149 C 
BRANCH  10  11
ATOM     11  C   LEU A   6      14.736  18.638   0.740  0.00  0.00    +0.241 C 
ATOM     12  N   LEU A   7      15.187  18.813   1.981  0.00  0.00    -0.297 N 
ATOM     13  H   LEU A   7      16.121  18.448   2.256  0.00  0.00    +0.150 HD
ATOM     14  O   LEU A   6      13.643  19.082   0.360  0.00  0.00    -0.273 OA
BRANCH  12  15
ATOM     15  CA  LEU A   7      14.356  19.525   2.957  0.00  0.00    +0.149 C 
BRANCH  15  16
ATOM     16  C   LEU A   7      14.255  21.014   2.635  0.00  0.00    +0.241 C 
ATOM     17  O   LEU A   7      13.282  21.655   3.054  0.00  0.00    -0.273 OA
ATOM     18  N   PHE A   8      15.218  21.564   1.897  0.00  0.00    -0.298 N 
ATOM     19  H   PHE A   8      16.047  20.996   1.631  0.00  0.00    +0.150 HD
BRANCH  18  20
ATOM     20  CA  PHE A   8      15.125  22.961   1.454  0.00  0.00    +0.141 C 
BRANCH  20  21
ATOM     21  C   PHE A   8      14.260  23.090   0.195  0.00  0.00    +0.227 C 
ATOM     22  O   PHE A   8      13.941  24.208  -0.224  0.00  0.00    -0.286 OA
ENDBRANCH  20  21
BRANCH  20  23
ATOM     23  CB  PHE A   8      16.500  23.565   1.155  0.00  0.00    +0.054 C 
BRANCH  23  24
ATOM     24  CG  PHE A   8      17.308  23.939   2.365  0.00  0.00    -0.020 A 
ATOM     25  CD2 PHE A   8      16.775  23.905   3.641  0.00  0.00    -0.004 A 
ATOM     26  CE2 PHE A   8      17.546  24.255   4.733  0.00  0.00    -0.000 A 
ATOM     27  CZ  PHE A   8      18.854  24.643   4.554  0.00  0.00    -0.000 A 
ATOM     28  CE1 PHE A   8      19.389  24.683   3.297  0.00  0.00    -0.000 A 
ATOM     29  CD1 PHE A   8      18.622  24.333   2.212  0.00  0.00    -0.004 A 
ENDBRANCH  23  24
ENDBRANCH  20  23
ENDBRANCH  18  20
ENDBRANCH  15  16
BRANCH  15  30
ATOM     30  CB  LEU A   7      14.887  19.314   4.368  0.00  0.00    +0.029 C 
BRANCH  30  31
ATOM     31  CG  LEU A   7      14.518  17.923   4.915  0.00  0.00    +0.002 C 
ATOM     32  CD2 LEU A   7      15.306  17.595   6.148  0.00  0.00    +0.000 C 
ATOM     33  CD1 LEU A   7      13.046  17.812   5.205  0.00  0.00    +0.000 C 
ENDBRANCH  30  31
ENDBRANCH  15  30
ENDBRANCH  12  15
ENDBRANCH  10  11
BRANCH  10  34
ATOM     34  CB  LEU A   6      15.575  16.379   0.087  0.00  0.00    +0.029 C 
BRANCH  34  35
ATOM     35  CG  LEU A   6      16.040  15.515  -1.075  0.00  0.00    +0.002 C 
ATOM     36  CD2 LEU A   6      16.340  14.085  -0.611  0.00  0.00    +0.000 C 
ATOM     37  CD1 LEU A   6      15.015  15.527  -2.195  0.00  0.00    +0.000 C 
ENDBRANCH  34  35
ENDBRANCH  10  34
ENDBRANCH   7  10
ENDBRANCH   5   6
ENDBRANCH   3   5
BRANCH   1  38
ATOM     38  CA  LYS A   4      19.579  19.193   3.235  0.00  0.00    +0.149 C 
BRANCH  38  40
ATOM     39  C   ALA A   3      18.805  16.957   2.898  0.00  0.00    +0.241 C 
ATOM     40  N   LYS A   4      19.811  17.791   3.031  0.00  0.00    -0.297 N 
ATOM     41  H   LYS A   4      20.786  17.432   2.988  0.00  0.00    +0.150 HD
ATOM     42  O   ALA A   3      17.630  17.328   2.923  0.00  0.00    -0.273 OA
BRANCH  39  43
ATOM     43  CA  ALA A   3      19.182  15.503   2.674  0.00  0.00    +0.149 C 
ATOM     44  CB  ALA A   3      19.525  14.835   4.002  0.00  0.00    +0.031 C 
BRANCH  43  46
ATOM     45  C   ASP A   2      20.163  15.795   0.490  0.00  0.00    +0.241 C 
ATOM     46  N   ALA A   3      20.306  15.405   1.749  0.00  0.00    -0.297 N 
ATOM     47  H   ALA A   3      21.219  15.029   2.077  0.00  0.00    +0.150 HD
ATOM     48  O   ASP A   2      19.152  16.374   0.095  0.00  0.00    -0.273 OA
BRANCH  45  49
ATOM     49  CA  ASP A   2      21.280  15.423  -0.471  0.00  0.00    +0.160 C 
BRANCH  49  52
ATOM     50  C   LEU A   1      21.654  12.993  -0.296  0.00  0.00    +0.238 C 
ATOM     51  O   LEU A   1      22.457  13.115   0.632  0.00  0.00    -0.274 OA
ATOM     52  N   ASP A   2      21.079  14.034  -0.896  0.00  0.00    -0.297 N 
ATOM     53  H   ASP A   2      20.455  13.852  -1.708  0.00  0.00    +0.150 HD
BRANCH  50  54
ATOM     54  CA  LEU A   1      21.310  11.606  -0.867  0.00  0.00    +0.145 C 
BRANCH  54  55
ATOM     55  N   LEU A   1      22.511  10.909  -1.270  0.00  0.00    -0.238 NA
ATOM     56  H   LEU A   1      22.822  10.075  -0.732  0.00  0.00    +0.142 HD
ENDBRANCH  54  55
BRANCH  54  57
ATOM     57  CB  LEU A   1      20.569  10.751   0.147  0.00  0.00    +0.026 C 
BRANCH  57  58
ATOM     58  CG  LEU A   1      19.144  11.068   0.504  0.00  0.00    +0.002 C 
ATOM     59  CD2 LEU A   1      18.748  10.064   1.568  0.00  0.00    +0.000 C 
ATOM     60  CD1 LEU A   1      18.258  10.947  -0.704  0.00  0.00    +0.000 C 
ENDBRANCH  57  58
ENDBRANCH  54  57
ENDBRANCH  50  54
ENDBRANCH  49  52
BRANCH  49  61
ATOM     61  CB  ASP A   2      21.287  16.336  -1.700  0.00  0.00    +0.143 C 
BRANCH  61  62
ATOM     62  CG  ASP A   2      21.568  17.786  -1.365  0.00  0.00    +0.367 C 
ATOM     63  OD2 ASP A   2      21.848  18.127  -0.192  0.00  0.00    -0.246 OA
ATOM     64  OD1 ASP A   2      21.540  18.579  -2.326  0.00  0.00    -0.246 OA
ENDBRANCH  61  62
ENDBRANCH  49  61
ENDBRANCH  45  49
ENDBRANCH  43  46
ENDBRANCH  39  43
ENDBRANCH  38  40
BRANCH  38  65
ATOM     65  CB  LYS A   4      20.904  19.852   3.568  0.00  0.00    +0.029 C 
BRANCH  65  66
ATOM     66  CG  LYS A   4      20.809  21.199   4.161  0.00  0.00    +0.000 C 
BRANCH  66  67
ATOM     67  CD  LYS A   4      22.169  21.571   4.780  0.00  0.00    -0.024 C 
BRANCH  67  68
ATOM     68  CE  LYS A   4      22.072  22.736   5.757  0.00  0.00    -0.086 C 
BRANCH  68  69
ATOM     69  NZ  LYS A   4      23.366  22.986   6.471  0.00  0.00    +0.380 N 
ATOM     70  HZ1 LYS A   4      23.251  23.787   7.124  0.00  0.00    -0.089 HD
ATOM     71  HZ2 LYS A   4      23.635  22.136   7.007  0.00  0.00    -0.089 HD
ATOM     72  HZ3 LYS A   4      24.107  23.208   5.776  0.00  0.00    -0.089 HD
ENDBRANCH  68  69
ENDBRANCH  67  68
ENDBRANCH  66  67
ENDBRANCH  65  66
ENDBRANCH  38  65
ENDBRANCH   1  38
TORSDOF 31
REMARK  Name = ../refined-set-2016/4omk/4omk_pocket.pdb
REMARK  318 active torsions:
REMARK  status: ('A' for Active; 'I' for Inactive)
REMARK    1  A    between atoms: _1  and  _3
REMARK    2  A    between atoms: _3  and  _4
REMARK    3  A    between atoms: _3  and  _6
REMARK    4  A    between atoms: _6  and  _7
REMARK    5  A    between atoms: _10  and  _12
REMARK    6  A    between atoms: _12  and  _13
REMARK    7  A    between atoms: _12  and  _15
REMARK    8  A    between atoms: _15  and  _16
REMARK    9  A    between atoms: _21  and  _22
REMARK   10  A    between atoms: _24  and  _26
REMARK   11  A    between atoms: _26  and  _27
REMARK   12  A    between atoms: _26  and  _29
REMARK   13  A    between atoms: _29  and  _30
REMARK   14  A    between atoms: _33  and  _35
REMARK   15  A    between atoms: _35  and  _36
REMARK   16  A    between atoms: _35  and  _38
REMARK   17  A    between atoms: _38  and  _39
REMARK   18  A    between atoms: _41  and  _43
REMARK   19  A    between atoms: _43  and  _44
REMARK   20  A    between atoms: _43  and  _46
REMARK   21  A    between atoms: _46  and  _47
REMARK   22  A    between atoms: _57  and  _59
REMARK   23  A    between atoms: _59  and  _60
REMARK   24  A    between atoms: _59  and  _62
REMARK   25  A    between atoms: _62  and  _63
REMARK   26  A    between atoms: _66  and  _68
REMARK   27  A    between atoms: _68  and  _69
REMARK   28  A    between atoms: _68  and  _71
REMARK   29  A    between atoms: _71  and  _72
REMARK   30  A    between atoms: _75  and  _77
REMARK   31  A    between atoms: _77  and  _78
REMARK   32  A    between atoms: _77  and  _80
REMARK   33  A    between atoms: _80  and  _81
REMARK   34  A    between atoms: _84  and  _86
REMARK   35  A    between atoms: _86  and  _87
REMARK   36  A    between atoms: _86  and  _89
REMARK   37  A    between atoms: _89  and  _90
REMARK   38  A    between atoms: _93  and  _95
REMARK   39  A    between atoms: _95  and  _96
REMARK   40  A    between atoms: _99  and  _101
REMARK   41  A    between atoms: _101  and  _102
REMARK   42  A    between atoms: _101  and  _104
REMARK   43  A    between atoms: _104  and  _105
REMARK   44  A    between atoms: _105  and  _106
REMARK   45  A    between atoms: _106  and  _107
REMARK   46  A    between atoms: _107  and  _108
REMARK   47  A    between atoms: _112  and  _114
REMARK   48  A    between atoms: _114  and  _115
REMARK   49  A    between atoms: _117  and  _119
REMARK   50  A    between atoms: _119  and  _120
REMARK   51  A    between atoms: _119  and  _122
REMARK   52  A    between atoms: _122  and  _123
REMARK   53  A    between atoms: _126  and  _128
REMARK   54  A    between atoms: _128  and  _129
REMARK   55  A    between atoms: _128  and  _131
REMARK   56  A    between atoms: _131  and  _132
REMARK   57  A    between atoms: _135  and  _137
REMARK   58  A    between atoms: _137  and  _138
REMARK   59  A    between atoms: _137  and  _140
REMARK   60  A    between atoms: _140  and  _141
REMARK   61  A    between atoms: _147  and  _149
REMARK   62  A    between atoms: _149  and  _150
REMARK   63  A    between atoms: _149  and  _152
REMARK   64  A    between atoms: _152  and  _153
REMARK   65  A    between atoms: _155  and  _157
REMARK   66  A    between atoms: _157  and  _158
REMARK   67  A    between atoms: _157  and  _160
REMARK   68  A    between atoms: _160  and  _161
REMARK   69  A    between atoms: _161  and  _162
REMARK   70  A    between atoms: _162  and  _163
REMARK   71  A    between atoms: _163  and  _164
REMARK   72  A    between atoms: _168  and  _170
REMARK   73  A    between atoms: _170  and  _171
REMARK   74  A    between atoms: _170  and  _173
REMARK   75  A    between atoms: _173  and  _174
REMARK   76  A    between atoms: _174  and  _175
REMARK   77  A    between atoms: _180  and  _182
REMARK   78  A    between atoms: _182  and  _183
REMARK   79  A    between atoms: _182  and  _185
REMARK   80  A    between atoms: _185  and  _186
REMARK   81  A    between atoms: _189  and  _191
REMARK   82  A    between atoms: _191  and  _192
REMARK   83  A    between atoms: _191  and  _194
REMARK   84  A    between atoms: _194  and  _195
REMARK   85  A    between atoms: _198  and  _200
REMARK   86  A    between atoms: _200  and  _201
REMARK   87  A    between atoms: _200  and  _203
REMARK   88  A    between atoms: _203  and  _204
REMARK   89  A    between atoms: _207  and  _209
REMARK   90  A    between atoms: _209  and  _210
REMARK   91  A    between atoms: _209  and  _212
REMARK   92  A    between atoms: _212  and  _213
REMARK   93  A    between atoms: _213  and  _214
REMARK   94  A    between atoms: _214  and  _215
REMARK   95  A    between atoms: _224  and  _226
REMARK   96  A    between atoms: _226  and  _227
REMARK   97  A    between atoms: _226  and  _229
REMARK   98  A    between atoms: _229  and  _230
REMARK   99  A    between atoms: _233  and  _235
REMARK  100  A    between atoms: _235  and  _236
REMARK  101  A    between atoms: _235  and  _238
REMARK  102  A    between atoms: _238  and  _239
REMARK  103  A    between atoms: _239  and  _240
REMARK  104  A    between atoms: _240  and  _241
REMARK  105  A    between atoms: _241  and  _242
REMARK  106  A    between atoms: _246  and  _248
REMARK  107  A    between atoms: _248  and  _249
REMARK  108  A    between atoms: _248  and  _251
REMARK  109  A    between atoms: _251  and  _252
REMARK  110  A    between atoms: _252  and  _253
REMARK  111  A    between atoms: _255  and  _257
REMARK  112  A    between atoms: _257  and  _258
REMARK  113  A    between atoms: _257  and  _260
REMARK  114  A    between atoms: _260  and  _261
REMARK  115  A    between atoms: _261  and  _262
REMARK  116  A    between atoms: _265  and  _267
REMARK  117  A    between atoms: _267  and  _268
REMARK  118  A    between atoms: _267  and  _270
REMARK  119  A    between atoms: _272  and  _274
REMARK  120  A    between atoms: _274  and  _275
REMARK  121  A    between atoms: _274  and  _277
REMARK  122  A    between atoms: _277  and  _278
REMARK  123  A    between atoms: _281  and  _283
REMARK  124  A    between atoms: _283  and  _284
REMARK  125  A    between atoms: _283  and  _286
REMARK  126  A    between atoms: _286  and  _287
REMARK  127  A    between atoms: _290  and  _292
REMARK  128  A    between atoms: _292  and  _293
REMARK  129  A    between atoms: _292  and  _295
REMARK  130  A    between atoms: _295  and  _296
REMARK  131  A    between atoms: _301  and  _302
REMARK  132  A    between atoms: _304  and  _306
REMARK  133  A    between atoms: _306  and  _307
REMARK  134  A    between atoms: _306  and  _309
REMARK  135  A    between atoms: _309  and  _310
REMARK  136  A    between atoms: _313  and  _315
REMARK  137  A    between atoms: _315  and  _316
REMARK  138  A    between atoms: _315  and  _318
REMARK  139  A    between atoms: _320  and  _322
REMARK  140  A    between atoms: _322  and  _323
REMARK  141  A    between atoms: _322  and  _325
REMARK  142  A    between atoms: _325  and  _326
REMARK  143  A    between atoms: _329  and  _331
REMARK  144  A    between atoms: _331  and  _332
REMARK  145  A    between atoms: _334  and  _336
REMARK  146  A    between atoms: _336  and  _337
REMARK  147  A    between atoms: _336  and  _339
REMARK  148  A    between atoms: _339  and  _340
REMARK  149  A    between atoms: _340  and  _341
REMARK  150  A    between atoms: _341  and  _342
REMARK  151  A    between atoms: _342  and  _343
REMARK  152  A    between atoms: _347  and  _349
REMARK  153  A    between atoms: _349  and  _350
REMARK  154  A    between atoms: _349  and  _352
REMARK  155  A    between atoms: _352  and  _353
REMARK  156  A    between atoms: _358  and  _360
REMARK  157  A    between atoms: _360  and  _361
REMARK  158  A    between atoms: _360  and  _363
REMARK  159  A    between atoms: _363  and  _364
REMARK  160  A    between atoms: _367  and  _369
REMARK  161  A    between atoms: _369  and  _370
REMARK  162  A    between atoms: _369  and  _372
REMARK  163  A    between atoms: _372  and  _373
REMARK  164  A    between atoms: _383  and  _385
REMARK  165  A    between atoms: _385  and  _386
REMARK  166  A    between atoms: _385  and  _388
REMARK  167  A    between atoms: _388  and  _389
REMARK  168  A    between atoms: _389  and  _390
REMARK  169  A    between atoms: _390  and  _391
REMARK  170  A    between atoms: _391  and  _392
REMARK  171  A    between atoms: _397  and  _398
REMARK  172  A    between atoms: _403  and  _405
REMARK  173  A    between atoms: _405  and  _406
REMARK  174  A    between atoms: _409  and  _411
REMARK  175  A    between atoms: _411  and  _412
REMARK  176  A    between atoms: _411  and  _414
REMARK  177  A    between atoms: _417  and  _419
REMARK  178  A    between atoms: _419  and  _420
REMARK  179  A    between atoms: _419  and  _422
REMARK  180  A    between atoms: _422  and  _423
REMARK  181  A    between atoms: _423  and  _424
REMARK  182  A    between atoms: _427  and  _429
REMARK  183  A    between atoms: _429  and  _430
REMARK  184  A    between atoms: _433  and  _435
REMARK  185  A    between atoms: _435  and  _436
REMARK  186  A    between atoms: _435  and  _438
REMARK  187  A    between atoms: _438  and  _439
REMARK  188  A    between atoms: _444  and  _445
REMARK  189  A    between atoms: _447  and  _449
REMARK  190  A    between atoms: _449  and  _450
REMARK  191  A    between atoms: _452  and  _454
REMARK  192  A    between atoms: _454  and  _455
REMARK  193  A    between atoms: _454  and  _457
REMARK  194  A    between atoms: _457  and  _458
REMARK  195  A    between atoms: _458  and  _459
REMARK  196  A    between atoms: _462  and  _464
REMARK  197  A    between atoms: _464  and  _465
REMARK  198  A    between atoms: _464  and  _467
REMARK  199  A    between atoms: _467  and  _468
REMARK  200  A    between atoms: _474  and  _476
REMARK  201  A    between atoms: _476  and  _477
REMARK  202  A    between atoms: _476  and  _479
REMARK  203  A    between atoms: _479  and  _480
REMARK  204  A    between atoms: _483  and  _485
REMARK  205  A    between atoms: _485  and  _486
REMARK  206  A    between atoms: _485  and  _488
REMARK  207  A    between atoms: _488  and  _489
REMARK  208  A    between atoms: _489  and  _490
REMARK  209  A    between atoms: _492  and  _494
REMARK  210  A    between atoms: _494  and  _495
REMARK  211  A    between atoms: _494  and  _497
REMARK  212  A    between atoms: _497  and  _498
REMARK  213  A    between atoms: _504  and  _506
REMARK  214  A    between atoms: _506  and  _507
REMARK  215  A    between atoms: _506  and  _509
REMARK  216  A    between atoms: _509  and  _510
REMARK  217  A    between atoms: _510  and  _511
REMARK  218  A    between atoms: _514  and  _516
REMARK  219  A    between atoms: _516  and  _517
REMARK  220  A    between atoms: _516  and  _519
REMARK  221  A    between atoms: _519  and  _520
REMARK  222  A    between atoms: _523  and  _525
REMARK  223  A    between atoms: _525  and  _526
REMARK  224  A    between atoms: _525  and  _528
REMARK  225  A    between atoms: _528  and  _529
REMARK  226  A    between atoms: _532  and  _534
REMARK  227  A    between atoms: _534  and  _535
REMARK  228  A    between atoms: _534  and  _537
REMARK  229  A    between atoms: _537  and  _538
REMARK  230  A    between atoms: _544  and  _546
REMARK  231  A    between atoms: _546  and  _547
REMARK  232  A    between atoms: _546  and  _549
REMARK  233  A    between atoms: _552  and  _554
REMARK  234  A    between atoms: _554  and  _555
REMARK  235  A    between atoms: _559  and  _560
REMARK  236  A    between atoms: _565  and  _567
REMARK  237  A    between atoms: _567  and  _568
REMARK  238  A    between atoms: _567  and  _570
REMARK  239  A    between atoms: _570  and  _571
REMARK  240  A    between atoms: _574  and  _576
REMARK  241  A    between atoms: _576  and  _577
REMARK  242  A    between atoms: _576  and  _579
REMARK  243  A    between atoms: _579  and  _580
REMARK  244  A    between atoms: _587  and  _588
REMARK  245  A    between atoms: _593  and  _595
REMARK  246  A    between atoms: _595  and  _596
REMARK  247  A    between atoms: _595  and  _598
REMARK  248  A    between atoms: _601  and  _603
REMARK  249  A    between atoms: _603  and  _604
REMARK  250  A    between atoms: _607  and  _609
REMARK  251  A    between atoms: _609  and  _610
REMARK  252  A    between atoms: _609  and  _612
REMARK  253  A    between atoms: _612  and  _613
REMARK  254  A    between atoms: _618  and  _619
REMARK  255  A    between atoms: _621  and  _623
REMARK  256  A    between atoms: _623  and  _624
REMARK  257  A    between atoms: _623  and  _626
REMARK  258  A    between atoms: _626  and  _627
REMARK  259  A    between atoms: _632  and  _634
REMARK  260  A    between atoms: _634  and  _635
REMARK  261  A    between atoms: _634  and  _637
REMARK  262  A    between atoms: _637  and  _638
REMARK  263  A    between atoms: _641  and  _643
REMARK  264  A    between atoms: _643  and  _644
REMARK  265  A    between atoms: _643  and  _646
REMARK  266  A    between atoms: _646  and  _647
REMARK  267  A    between atoms: _650  and  _652
REMARK  268  A    between atoms: _652  and  _653
REMARK  269  A    between atoms: _652  and  _655
REMARK  270  A    between atoms: _655  and  _656
REMARK  271  A    between atoms: _656  and  _657
REMARK  272  A    between atoms: _657  and  _658
REMARK  273  A    between atoms: _658  and  _659
REMARK  274  A    between atoms: _663  and  _665
REMARK  275  A    between atoms: _665  and  _666
REMARK  276  A    between atoms: _665  and  _668
REMARK  277  A    between atoms: _668  and  _669
REMARK  278  A    between atoms: _675  and  _677
REMARK  279  A    between atoms: _677  and  _678
REMARK  280  A    between atoms: _677  and  _680
REMARK  281  A    between atoms: _680  and  _681
REMARK  282  A    between atoms: _684  and  _686
REMARK  283  A    between atoms: _686  and  _687
REMARK  284  A    between atoms: _686  and  _689
REMARK  285  A    between atoms: _689  and  _690
REMARK  286  A    between atoms: _692  and  _694
REMARK  287  A    between atoms: _694  and  _695
REMARK  288  A    between atoms: _694  and  _697
REMARK  289  A    between atoms: _697  and  _698
REMARK  290  A    between atoms: _701  and  _703
REMARK  291  A    between atoms: _703  and  _704
REMARK  292  A    between atoms: _703  and  _706
REMARK  293  A    between atoms: _706  and  _707
REMARK  294  A    between atoms: _707  and  _708
REMARK  295  A    between atoms: _708  and  _709
REMARK  296  A    between atoms: _718  and  _720
REMARK  297  A    between atoms: _720  and  _721
REMARK  298  A    between atoms: _720  and  _723
REMARK  299  A    between atoms: _723  and  _724
REMARK  300  A    between atoms: _724  and  _725
REMARK  301  A    between atoms: _725  and  _726
REMARK  302  A    between atoms: _726  and  _727
REMARK  303  A    between atoms: _731  and  _733
REMARK  304  A    between atoms: _733  and  _734
REMARK  305  A    between atoms: _733  and  _736
REMARK  306  A    between atoms: _736  and  _737
REMARK  307  A    between atoms: _740  and  _742
REMARK  308  A    between atoms: _742  and  _743
REMARK  309  A    between atoms: _742  and  _745
REMARK  310  A    between atoms: _745  and  _746
REMARK  311  A    between atoms: _746  and  _747
REMARK  312  A    between atoms: _749  and  _751
REMARK  313  A    between atoms: _751  and  _752
REMARK  314  A    between atoms: _751  and  _754
REMARK  315  A    between atoms: _757  and  _759
REMARK  316  A    between atoms: _759  and  _760
REMARK  317  A    between atoms: _759  and  _762
REMARK  318  A    between atoms: _762  and  _763
REMARK                            x       y       z     vdW  Elec       q    Type
REMARK                         _______ _______ _______ _____ _____    ______ ____
ROOT
ATOM      1  CA  LEU A   6       6.862  11.415   3.929  0.00  0.00    +0.149 C 
ENDROOT
BRANCH   1   2
ATOM      2  C   LEU A   6       5.810  10.697   3.075  0.00  0.00    +0.241 C 
ATOM      3  O   LEU A   6       5.722   9.457   3.062  0.00  0.00    -0.273 OA
ATOM      4  N   ARG A   7       5.020  11.468   2.332  0.00  0.00    -0.297 N 
ATOM      5  H   ARG A   7       5.121  12.501   2.391  0.00  0.00    +0.150 HD
BRANCH   4   6
ATOM      6  CA  ARG A   7       4.022  10.906   1.443  0.00  0.00    +0.149 C 
BRANCH   6   7
ATOM      7  C   ARG A   7       4.701  10.047   0.371  0.00  0.00    +0.241 C 
ATOM      8  O   ARG A   7       4.200   8.992  -0.021  0.00  0.00    -0.273 OA
ATOM      9  N   THR A   8       5.861  10.484  -0.098  0.00  0.00    -0.295 N 
ATOM     10  H   THR A   8       6.251  11.382   0.254  0.00  0.00    +0.150 HD
BRANCH   9  11
ATOM     11  CA  THR A   8       6.598   9.724  -1.100  0.00  0.00    +0.176 C 
BRANCH  11  12
ATOM     12  C   THR A   8       7.051   8.385  -0.544  0.00  0.00    +0.243 C 
ATOM     13  N   LYS A   9       7.496   8.373   0.709  0.00  0.00    -0.297 N 
ATOM     14  H   LYS A   9       7.577   9.273   1.223  0.00  0.00    +0.150 HD
ATOM     15  O   THR A   8       6.954   7.375  -1.249  0.00  0.00    -0.273 OA
BRANCH  13  16
ATOM     16  CA  LYS A   9       7.878   7.127   1.391  0.00  0.00    +0.149 C 
BRANCH  16  17
ATOM     17  C   LYS A   9       6.663   6.201   1.574  0.00  0.00    +0.241 C 
ATOM     18  N   MET A  10       5.518   6.760   1.965  0.00  0.00    -0.298 N 
ATOM     19  H   MET A  10       5.492   7.770   2.211  0.00  0.00    +0.150 HD
ATOM     20  O   LYS A   9       6.760   4.981   1.364  0.00  0.00    -0.273 OA
BRANCH  18  21
ATOM     21  CA  MET A  10       4.292   5.953   2.050  0.00  0.00    +0.138 C 
BRANCH  21  22
ATOM     22  C   MET A  10       3.987   5.316   0.713  0.00  0.00    +0.227 C 
ATOM     23  O   MET A  10       3.603   4.121   0.636  0.00  0.00    -0.286 OA
ENDBRANCH  21  22
BRANCH  21  24
ATOM     24  CB  MET A  10       3.082   6.809   2.496  0.00  0.00    +0.039 C 
BRANCH  24  25
ATOM     25  CG  MET A  10       3.225   7.482   3.836  0.00  0.00    +0.060 C 
BRANCH  25  26
ATOM     26  SD  MET A  10       1.923   8.783   4.039  0.00  0.00    -0.139 S 
ATOM     27  CE  MET A  10       2.683   9.853   5.237  0.00  0.00    +0.069 C 
ENDBRANCH  25  26
ENDBRANCH  24  25
ENDBRANCH  21  24
ENDBRANCH  18  21
ENDBRANCH  16  17
BRANCH  16  28
ATOM     28  CB  LYS A   9       8.509   7.406   2.752  0.00  0.00    +0.029 C 
BRANCH  28  29
ATOM     29  CG  LYS A   9       9.783   8.232   2.719  0.00  0.00    +0.000 C 
BRANCH  29  30
ATOM     30  CD  LYS A   9      10.882   7.606   1.901  0.00  0.00    -0.024 C 
BRANCH  30  31
ATOM     31  CE  LYS A   9      11.444   6.356   2.568  0.00  0.00    -0.086 C 
BRANCH  31  32
ATOM     32  NZ  LYS A   9      12.493   5.788   1.667  0.00  0.00    +0.380 N 
ATOM     33  HZ1 LYS A   9      12.894   4.932   2.100  0.00  0.00    -0.089 HD
ATOM     34  HZ2 LYS A   9      13.246   6.492   1.527  0.00  0.00    -0.089 HD
ATOM     35  HZ3 LYS A   9      12.067   5.547   0.750  0.00  0.00    -0.089 HD
ENDBRANCH  31  32
ENDBRANCH  30  31
ENDBRANCH  29  30
ENDBRANCH  28  29
ENDBRANCH  16  28
ENDBRANCH  13  16
ENDBRANCH  11  12
BRANCH  11  36
ATOM     36  CB  THR A   8       7.816  10.512  -1.610  0.00  0.00    +0.137 C 
ATOM     37  CG2 THR A   8       8.578   9.736  -2.664  0.00  0.00    +0.034 C 
BRANCH  36  38
ATOM     38  OG1 THR A   8       7.359  11.741  -2.180  0.00  0.00    -0.382 OA
ATOM     39  HG1 THR A   8       6.882  12.266  -1.490  0.00  0.00    +0.210 HD
ENDBRANCH  36  38
ENDBRANCH  11  36
ENDBRANCH   9  11
ENDBRANCH   6   7
BRANCH   6  40
ATOM     40  CB  ARG A   7       3.181  12.029   0.815  0.00  0.00    +0.033 C 
BRANCH  40  41
ATOM     41  CG  ARG A   7       1.999  11.547   0.011  0.00  0.00    +0.045 C 
BRANCH  41  42
ATOM     42  CD  ARG A   7       1.158  12.714  -0.533  0.00  0.00    +0.174 C 
BRANCH  42  43
ATOM     43  NE  ARG A   7       0.549  13.510   0.539  0.00  0.00    -0.265 N 
ATOM     44  CZ  ARG A   7      -0.625  13.227   1.110  0.00  0.00    +0.342 C 
ATOM     45  NH2 ARG A   7      -1.084  14.012   2.077  0.00  0.00    -0.292 N 
ATOM     46 HH21 ARG A   7      -1.997  13.801   2.529  0.00  0.00    +0.255 HD
ATOM     47 HH22 ARG A   7      -0.531  14.838   2.383  0.00  0.00    +0.255 HD
ATOM     48  NH1 ARG A   7      -1.348  12.162   0.723  0.00  0.00    -0.292 N 
ATOM     49 HH11 ARG A   7      -2.260  11.959   1.180  0.00  0.00    +0.255 HD
ATOM     50 HH12 ARG A   7      -0.996  11.541  -0.033  0.00  0.00    +0.255 HD
ATOM     51  HE  ARG A   7       1.064  14.348   0.876  0.00  0.00    +0.259 HD
ENDBRANCH  42  43
ENDBRANCH  41  42
ENDBRANCH  40  41
ENDBRANCH   6  40
ENDBRANCH   4   6
ENDBRANCH   1   2
BRANCH   1  53
ATOM     52  C   LEU A   5       8.173  12.371   2.135  0.00  0.00    +0.241 C 
ATOM     53  N   LEU A   6       7.429  12.570   3.219  0.00  0.00    -0.297 N 
ATOM     54  H   LEU A   6       7.250  13.535   3.562  0.00  0.00    +0.150 HD
ATOM     55  O   LEU A   5       8.419  11.214   1.708  0.00  0.00    -0.273 OA
BRANCH  52  56
ATOM     56  CA  LEU A   5       8.716  13.624   1.449  0.00  0.00    +0.149 C 
BRANCH  56  58
ATOM     57  C   ASP A   4       6.599  14.406   0.579  0.00  0.00    +0.241 C 
ATOM     58  N   LEU A   5       7.656  14.627   1.341  0.00  0.00    -0.297 N 
ATOM     59  H   LEU A   5       7.735  15.520   1.868  0.00  0.00    +0.150 HD
ATOM     60  O   ASP A   4       6.490  13.420  -0.145  0.00  0.00    -0.273 OA
BRANCH  57  61
ATOM     61  CA  ASP A   4       5.504  15.471   0.594  0.00  0.00    +0.160 C 
BRANCH  61  64
ATOM     62  C   GLN A   3       4.835  15.427   2.904  0.00  0.00    +0.241 C 
ATOM     63  O   GLN A   3       4.444  14.269   2.784  0.00  0.00    -0.273 OA
ATOM     64  N   ASP A   4       5.368  16.094   1.893  0.00  0.00    -0.297 N 
ATOM     65  H   ASP A   4       5.691  17.073   2.033  0.00  0.00    +0.150 HD
BRANCH  62  66
ATOM     66  CA  GLN A   3       4.743  16.144   4.254  0.00  0.00    +0.149 C 
BRANCH  66  68
ATOM     67  C   LYS A   2       7.118  16.355   4.668  0.00  0.00    +0.241 C 
ATOM     68  N   GLN A   3       5.927  16.942   4.520  0.00  0.00    -0.297 N 
ATOM     69  H   GLN A   3       5.847  17.976   4.596  0.00  0.00    +0.150 HD
ATOM     70  O   LYS A   2       7.262  15.150   4.518  0.00  0.00    -0.273 OA
BRANCH  67  71
ATOM     71  CA  LYS A   2       8.323  17.259   4.993  0.00  0.00    +0.149 C 
BRANCH  71  73
ATOM     72  C   SER A   1       8.075  18.521   2.969  0.00  0.00    +0.241 C 
ATOM     73  N   LYS A   2       8.170  18.509   4.285  0.00  0.00    -0.297 N 
ATOM     74  H   LYS A   2       8.135  19.403   4.815  0.00  0.00    +0.150 HD
ATOM     75  O   SER A   1       8.150  17.498   2.277  0.00  0.00    -0.274 OA
BRANCH  72  76
ATOM     76  CA  SER A   1       7.803  19.868   2.359  0.00  0.00    +0.174 C 
BRANCH  76  77
ATOM     77  N   SER A   1       8.385  19.947   1.028  0.00  0.00    -0.236 NA
ATOM     78  H   SER A   1       7.770  19.892   0.191  0.00  0.00    +0.142 HD
ENDBRANCH  76  77
BRANCH  76  79
ATOM     79  CB  SER A   1       6.296  20.127   2.301  0.00  0.00    +0.163 C 
BRANCH  79  80
ATOM     80  OG  SER A   1       5.638  19.147   1.510  0.00  0.00    -0.380 OA
ATOM     81  H   SER A   1       4.667  19.338   1.490  0.00  0.00    +0.211 HD
ENDBRANCH  79  80
ENDBRANCH  76  79
ENDBRANCH  72  76
ENDBRANCH  71  73
BRANCH  71  82
ATOM     82  CB  LYS A   2       8.464  17.514   6.496  0.00  0.00    +0.029 C 
BRANCH  82  83
ATOM     83  CG  LYS A   2       8.740  16.261   7.308  0.00  0.00    +0.000 C 
BRANCH  83  84
ATOM     84  CD  LYS A   2       9.434  16.585   8.654  0.00  0.00    -0.024 C 
BRANCH  84  85
ATOM     85  CE  LYS A   2       8.622  17.541   9.534  0.00  0.00    -0.086 C 
BRANCH  85  86
ATOM     86  NZ  LYS A   2       7.294  16.976   9.919  0.00  0.00    +0.380 N 
ATOM     87  HZ1 LYS A   2       6.786  17.662  10.513  0.00  0.00    -0.089 HD
ATOM     88  HZ2 LYS A   2       7.435  16.093  10.450  0.00  0.00    -0.089 HD
ATOM     89  HZ3 LYS A   2       6.740  16.781   9.061  0.00  0.00    -0.089 HD
ENDBRANCH  85  86
ENDBRANCH  84  85
ENDBRANCH  83  84
ENDBRANCH  82  83
ENDBRANCH  71  82
ENDBRANCH  67  71
ENDBRANCH  66  68
BRANCH  66  90
ATOM     90  CB  GLN A   3       3.454  16.980   4.344  0.00  0.00    +0.039 C 
BRANCH  90  91
ATOM     91  CG  GLN A   3       3.331  18.164   3.370  0.00  0.00    +0.087 C 
BRANCH  91  92
ATOM     92  CD  GLN A   3       1.943  18.806   3.412  0.00  0.00    +0.219 C 
ATOM     93  NE2 GLN A   3       1.659  19.556   4.478  0.00  0.00    -0.329 N 
ATOM     94 HE21 GLN A   3       2.366  19.678   5.231  0.00  0.00    +0.145 HD
ATOM     95 HE22 GLN A   3       0.731  20.019   4.556  0.00  0.00    +0.145 HD
ATOM     96  OE1 GLN A   3       1.138  18.628   2.487  0.00  0.00    -0.275 OA
ENDBRANCH  91  92
ENDBRANCH  90  91
ENDBRANCH  66  90
ENDBRANCH  62  66
ENDBRANCH  61  64
BRANCH  61  97
ATOM     97  CB  ASP A   4       5.799  16.504  -0.463  0.00  0.00    +0.143 C 
BRANCH  97  98
ATOM     98  CG  ASP A   4       4.542  17.231  -0.959  0.00  0.00    +0.367 C 
ATOM     99  OD2 ASP A   4       3.425  16.874  -0.537  0.00  0.00    -0.246 OA
ATOM    100  OD1 ASP A   4       4.694  18.128  -1.825  0.00  0.00    -0.246 OA
ENDBRANCH  97  98
ENDBRANCH  61  97
ENDBRANCH  57  61
ENDBRANCH  56  58
BRANCH  56 101
ATOM    101  CB  LEU A   5       9.885  14.198   2.215  0.00  0.00    +0.029 C 
BRANCH 101 102
ATOM    102  CG  LEU A   5      10.697  15.254   1.461  0.00  0.00    +0.002 C 
ATOM    103  CD2 LEU A   5      11.560  16.075   2.407  0.00  0.00    +0.000 C 
ATOM    104  CD1 LEU A   5      11.519  14.603   0.369  0.00  0.00    +0.000 C 
ENDBRANCH 101 102
ENDBRANCH  56 101
ENDBRANCH  52  56
ENDBRANCH   1  53
BRANCH   1 105
ATOM    105  CB  LEU A   6       6.272  11.853   5.287  0.00  0.00    +0.029 C 
BRANCH 105 106
ATOM    106  CG  LEU A   6       7.308  12.372   6.293  0.00  0.00    +0.002 C 
ATOM    107  CD2 LEU A   6       6.633  12.931   7.550  0.00  0.00    +0.000 C 
ATOM    108  CD1 LEU A   6       8.301  11.281   6.700  0.00  0.00    +0.000 C 
ENDBRANCH 105 106
ENDBRANCH   1 105
TORSDOF 50
REMARK  Name = ../refined-set-2016/4omk/4omk_pocket.pdb
REMARK  318 active torsions:
REMARK  status: ('A' for Active; 'I' for Inactive)
REMARK    1  A    between atoms: _1  and  _3
REMARK    2  A    between atoms: _3  and  _4
REMARK    3  A    between atoms: _3  and  _6
REMARK    4  A    between atoms: _6  and  _7
REMARK    5  A    between atoms: _10  and  _12
REMARK    6  A    between atoms: _12  and  _13
REMARK    7  A    between atoms: _12  and  _15
REMARK    8  A    between atoms: _15  and  _16
REMARK    9  A    between atoms: _21  and  _22
REMARK   10  A    between atoms: _24  and  _26
REMARK   11  A    between atoms: _26  and  _27
REMARK   12  A    between atoms: _26  and  _29
REMARK   13  A    between atoms: _29  and  _30
REMARK   14  A    between atoms: _33  and  _35
REMARK   15  A    between atoms: _35  and  _36
REMARK   16  A    between atoms: _35  and  _38
REMARK   17  A    between atoms: _38  and  _39
REMARK   18  A    between atoms: _41  and  _43
REMARK   19  A    between atoms: _43  and  _44
REMARK   20  A    between atoms: _43  and  _46
REMARK   21  A    between atoms: _46  and  _47
REMARK   22  A    between atoms: _57  and  _59
REMARK   23  A    between atoms: _59  and  _60
REMARK   24  A    between atoms: _59  and  _62
REMARK   25  A    between atoms: _62  and  _63
REMARK   26  A    between atoms: _66  and  _68
REMARK   27  A    between atoms: _68  and  _69
REMARK   28  A    between atoms: _68  and  _71
REMARK   29  A    between atoms: _71  and  _72
REMARK   30  A    between atoms: _75  and  _77
REMARK   31  A    between atoms: _77  and  _78
REMARK   32  A    between atoms: _77  and  _80
REMARK   33  A    between atoms: _80  and  _81
REMARK   34  A    between atoms: _84  and  _86
REMARK   35  A    between atoms: _86  and  _87
REMARK   36  A    between atoms: _86  and  _89
REMARK   37  A    between atoms: _89  and  _90
REMARK   38  A    between atoms: _93  and  _95
REMARK   39  A    between atoms: _95  and  _96
REMARK   40  A    between atoms: _99  and  _101
REMARK   41  A    between atoms: _101  and  _102
REMARK   42  A    between atoms: _101  and  _104
REMARK   43  A    between atoms: _104  and  _105
REMARK   44  A    between atoms: _105  and  _106
REMARK   45  A    between atoms: _106  and  _107
REMARK   46  A    between atoms: _107  and  _108
REMARK   47  A    between atoms: _112  and  _114
REMARK   48  A    between atoms: _114  and  _115
REMARK   49  A    between atoms: _117  and  _119
REMARK   50  A    between atoms: _119  and  _120
REMARK   51  A    between atoms: _119  and  _122
REMARK   52  A    between atoms: _122  and  _123
REMARK   53  A    between atoms: _126  and  _128
REMARK   54  A    between atoms: _128  and  _129
REMARK   55  A    between atoms: _128  and  _131
REMARK   56  A    between atoms: _131  and  _132
REMARK   57  A    between atoms: _135  and  _137
REMARK   58  A    between atoms: _137  and  _138
REMARK   59  A    between atoms: _137  and  _140
REMARK   60  A    between atoms: _140  and  _141
REMARK   61  A    between atoms: _147  and  _149
REMARK   62  A    between atoms: _149  and  _150
REMARK   63  A    between atoms: _149  and  _152
REMARK   64  A    between atoms: _152  and  _153
REMARK   65  A    between atoms: _155  and  _157
REMARK   66  A    between atoms: _157  and  _158
REMARK   67  A    between atoms: _157  and  _160
REMARK   68  A    between atoms: _160  and  _161
REMARK   69  A    between atoms: _161  and  _162
REMARK   70  A    between atoms: _162  and  _163
REMARK   71  A    between atoms: _163  and  _164
REMARK   72  A    between atoms: _168  and  _170
REMARK   73  A    between atoms: _170  and  _171
REMARK   74  A    between atoms: _170  and  _173
REMARK   75  A    between atoms: _173  and  _174
REMARK   76  A    between atoms: _174  and  _175
REMARK   77  A    between atoms: _180  and  _182
REMARK   78  A    between atoms: _182  and  _183
REMARK   79  A    between atoms: _182  and  _185
REMARK   80  A    between atoms: _185  and  _186
REMARK   81  A    between atoms: _189  and  _191
REMARK   82  A    between atoms: _191  and  _192
REMARK   83  A    between atoms: _191  and  _194
REMARK   84  A    between atoms: _194  and  _195
REMARK   85  A    between atoms: _198  and  _200
REMARK   86  A    between atoms: _200  and  _201
REMARK   87  A    between atoms: _200  and  _203
REMARK   88  A    between atoms: _203  and  _204
REMARK   89  A    between atoms: _207  and  _209
REMARK   90  A    between atoms: _209  and  _210
REMARK   91  A    between atoms: _209  and  _212
REMARK   92  A    between atoms: _212  and  _213
REMARK   93  A    between atoms: _213  and  _214
REMARK   94  A    between atoms: _214  and  _215
REMARK   95  A    between atoms: _224  and  _226
REMARK   96  A    between atoms: _226  and  _227
REMARK   97  A    between atoms: _226  and  _229
REMARK   98  A    between atoms: _229  and  _230
REMARK   99  A    between atoms: _233  and  _235
REMARK  100  A    between atoms: _235  and  _236
REMARK  101  A    between atoms: _235  and  _238
REMARK  102  A    between atoms: _238  and  _239
REMARK  103  A    between atoms: _239  and  _240
REMARK  104  A    between atoms: _240  and  _241
REMARK  105  A    between atoms: _241  and  _242
REMARK  106  A    between atoms: _246  and  _248
REMARK  107  A    between atoms: _248  and  _249
REMARK  108  A    between atoms: _248  and  _251
REMARK  109  A    between atoms: _251  and  _252
REMARK  110  A    between atoms: _252  and  _253
REMARK  111  A    between atoms: _255  and  _257
REMARK  112  A    between atoms: _257  and  _258
REMARK  113  A    between atoms: _257  and  _260
REMARK  114  A    between atoms: _260  and  _261
REMARK  115  A    between atoms: _261  and  _262
REMARK  116  A    between atoms: _265  and  _267
REMARK  117  A    between atoms: _267  and  _268
REMARK  118  A    between atoms: _267  and  _270
REMARK  119  A    between atoms: _272  and  _274
REMARK  120  A    between atoms: _274  and  _275
REMARK  121  A    between atoms: _274  and  _277
REMARK  122  A    between atoms: _277  and  _278
REMARK  123  A    between atoms: _281  and  _283
REMARK  124  A    between atoms: _283  and  _284
REMARK  125  A    between atoms: _283  and  _286
REMARK  126  A    between atoms: _286  and  _287
REMARK  127  A    between atoms: _290  and  _292
REMARK  128  A    between atoms: _292  and  _293
REMARK  129  A    between atoms: _292  and  _295
REMARK  130  A    between atoms: _295  and  _296
REMARK  131  A    between atoms: _301  and  _302
REMARK  132  A    between atoms: _304  and  _306
REMARK  133  A    between atoms: _306  and  _307
REMARK  134  A    between atoms: _306  and  _309
REMARK  135  A    between atoms: _309  and  _310
REMARK  136  A    between atoms: _313  and  _315
REMARK  137  A    between atoms: _315  and  _316
REMARK  138  A    between atoms: _315  and  _318
REMARK  139  A    between atoms: _320  and  _322
REMARK  140  A    between atoms: _322  and  _323
REMARK  141  A    between atoms: _322  and  _325
REMARK  142  A    between atoms: _325  and  _326
REMARK  143  A    between atoms: _329  and  _331
REMARK  144  A    between atoms: _331  and  _332
REMARK  145  A    between atoms: _334  and  _336
REMARK  146  A    between atoms: _336  and  _337
REMARK  147  A    between atoms: _336  and  _339
REMARK  148  A    between atoms: _339  and  _340
REMARK  149  A    between atoms: _340  and  _341
REMARK  150  A    between atoms: _341  and  _342
REMARK  151  A    between atoms: _342  and  _343
REMARK  152  A    between atoms: _347  and  _349
REMARK  153  A    between atoms: _349  and  _350
REMARK  154  A    between atoms: _349  and  _352
REMARK  155  A    between atoms: _352  and  _353
REMARK  156  A    between atoms: _358  and  _360
REMARK  157  A    between atoms: _360  and  _361
REMARK  158  A    between atoms: _360  and  _363
REMARK  159  A    between atoms: _363  and  _364
REMARK  160  A    between atoms: _367  and  _369
REMARK  161  A    between atoms: _369  and  _370
REMARK  162  A    between atoms: _369  and  _372
REMARK  163  A    between atoms: _372  and  _373
REMARK  164  A    between atoms: _383  and  _385
REMARK  165  A    between atoms: _385  and  _386
REMARK  166  A    between atoms: _385  and  _388
REMARK  167  A    between atoms: _388  and  _389
REMARK  168  A    between atoms: _389  and  _390
REMARK  169  A    between atoms: _390  and  _391
REMARK  170  A    between atoms: _391  and  _392
REMARK  171  A    between atoms: _397  and  _398
REMARK  172  A    between atoms: _403  and  _405
REMARK  173  A    between atoms: _405  and  _406
REMARK  174  A    between atoms: _409  and  _411
REMARK  175  A    between atoms: _411  and  _412
REMARK  176  A    between atoms: _411  and  _414
REMARK  177  A    between atoms: _417  and  _419
REMARK  178  A    between atoms: _419  and  _420
REMARK  179  A    between atoms: _419  and  _422
REMARK  180  A    between atoms: _422  and  _423
REMARK  181  A    between atoms: _423  and  _424
REMARK  182  A    between atoms: _427  and  _429
REMARK  183  A    between atoms: _429  and  _430
REMARK  184  A    between atoms: _433  and  _435
REMARK  185  A    between atoms: _435  and  _436
REMARK  186  A    between atoms: _435  and  _438
REMARK  187  A    between atoms: _438  and  _439
REMARK  188  A    between atoms: _444  and  _445
REMARK  189  A    between atoms: _447  and  _449
REMARK  190  A    between atoms: _449  and  _450
REMARK  191  A    between atoms: _452  and  _454
REMARK  192  A    between atoms: _454  and  _455
REMARK  193  A    between atoms: _454  and  _457
REMARK  194  A    between atoms: _457  and  _458
REMARK  195  A    between atoms: _458  and  _459
REMARK  196  A    between atoms: _462  and  _464
REMARK  197  A    between atoms: _464  and  _465
REMARK  198  A    between atoms: _464  and  _467
REMARK  199  A    between atoms: _467  and  _468
REMARK  200  A    between atoms: _474  and  _476
REMARK  201  A    between atoms: _476  and  _477
REMARK  202  A    between atoms: _476  and  _479
REMARK  203  A    between atoms: _479  and  _480
REMARK  204  A    between atoms: _483  and  _485
REMARK  205  A    between atoms: _485  and  _486
REMARK  206  A    between atoms: _485  and  _488
REMARK  207  A    between atoms: _488  and  _489
REMARK  208  A    between atoms: _489  and  _490
REMARK  209  A    between atoms: _492  and  _494
REMARK  210  A    between atoms: _494  and  _495
REMARK  211  A    between atoms: _494  and  _497
REMARK  212  A    between atoms: _497  and  _498
REMARK  213  A    between atoms: _504  and  _506
REMARK  214  A    between atoms: _506  and  _507
REMARK  215  A    between atoms: _506  and  _509
REMARK  216  A    between atoms: _509  and  _510
REMARK  217  A    between atoms: _510  and  _511
REMARK  218  A    between atoms: _514  and  _516
REMARK  219  A    between atoms: _516  and  _517
REMARK  220  A    between atoms: _516  and  _519
REMARK  221  A    between atoms: _519  and  _520
REMARK  222  A    between atoms: _523  and  _525
REMARK  223  A    between atoms: _525  and  _526
REMARK  224  A    between atoms: _525  and  _528
REMARK  225  A    between atoms: _528  and  _529
REMARK  226  A    between atoms: _532  and  _534
REMARK  227  A    between atoms: _534  and  _535
REMARK  228  A    between atoms: _534  and  _537
REMARK  229  A    between atoms: _537  and  _538
REMARK  230  A    between atoms: _544  and  _546
REMARK  231  A    between atoms: _546  and  _547
REMARK  232  A    between atoms: _546  and  _549
REMARK  233  A    between atoms: _552  and  _554
REMARK  234  A    between atoms: _554  and  _555
REMARK  235  A    between atoms: _559  and  _560
REMARK  236  A    between atoms: _565  and  _567
REMARK  237  A    between atoms: _567  and  _568
REMARK  238  A    between atoms: _567  and  _570
REMARK  239  A    between atoms: _570  and  _571
REMARK  240  A    between atoms: _574  and  _576
REMARK  241  A    between atoms: _576  and  _577
REMARK  242  A    between atoms: _576  and  _579
REMARK  243  A    between atoms: _579  and  _580
REMARK  244  A    between atoms: _587  and  _588
REMARK  245  A    between atoms: _593  and  _595
REMARK  246  A    between atoms: _595  and  _596
REMARK  247  A    between atoms: _595  and  _598
REMARK  248  A    between atoms: _601  and  _603
REMARK  249  A    between atoms: _603  and  _604
REMARK  250  A    between atoms: _607  and  _609
REMARK  251  A    between atoms: _609  and  _610
REMARK  252  A    between atoms: _609  and  _612
REMARK  253  A    between atoms: _612  and  _613
REMARK  254  A    between atoms: _618  and  _619
REMARK  255  A    between atoms: _621  and  _623
REMARK  256  A    between atoms: _623  and  _624
REMARK  257  A    between atoms: _623  and  _626
REMARK  258  A    between atoms: _626  and  _627
REMARK  259  A    between atoms: _632  and  _634
REMARK  260  A    between atoms: _634  and  _635
REMARK  261  A    between atoms: _634  and  _637
REMARK  262  A    between atoms: _637  and  _638
REMARK  263  A    between atoms: _641  and  _643
REMARK  264  A    between atoms: _643  and  _644
REMARK  265  A    between atoms: _643  and  _646
REMARK  266  A    between atoms: _646  and  _647
REMARK  267  A    between atoms: _650  and  _652
REMARK  268  A    between atoms: _652  and  _653
REMARK  269  A    between atoms: _652  and  _655
REMARK  270  A    between atoms: _655  and  _656
REMARK  271  A    between atoms: _656  and  _657
REMARK  272  A    between atoms: _657  and  _658
REMARK  273  A    between atoms: _658  and  _659
REMARK  274  A    between atoms: _663  and  _665
REMARK  275  A    between atoms: _665  and  _666
REMARK  276  A    between atoms: _665  and  _668
REMARK  277  A    between atoms: _668  and  _669
REMARK  278  A    between atoms: _675  and  _677
REMARK  279  A    between atoms: _677  and  _678
REMARK  280  A    between atoms: _677  and  _680
REMARK  281  A    between atoms: _680  and  _681
REMARK  282  A    between atoms: _684  and  _686
REMARK  283  A    between atoms: _686  and  _687
REMARK  284  A    between atoms: _686  and  _689
REMARK  285  A    between atoms: _689  and  _690
REMARK  286  A    between atoms: _692  and  _694
REMARK  287  A    between atoms: _694  and  _695
REMARK  288  A    between atoms: _694  and  _697
REMARK  289  A    between atoms: _697  and  _698
REMARK  290  A    between atoms: _701  and  _703
REMARK  291  A    between atoms: _703  and  _704
REMARK  292  A    between atoms: _703  and  _706
REMARK  293  A    between atoms: _706  and  _707
REMARK  294  A    between atoms: _707  and  _708
REMARK  295  A    between atoms: _708  and  _709
REMARK  296  A    between atoms: _718  and  _720
REMARK  297  A    between atoms: _720  and  _721
REMARK  298  A    between atoms: _720  and  _723
REMARK  299  A    between atoms: _723  and  _724
REMARK  300  A    between atoms: _724  and  _725
REMARK  301  A    between atoms: _725  and  _726
REMARK  302  A    between atoms: _726  and  _727
REMARK  303  A    between atoms: _731  and  _733
REMARK  304  A    between atoms: _733  and  _734
REMARK  305  A    between atoms: _733  and  _736
REMARK  306  A    between atoms: _736  and  _737
REMARK  307  A    between atoms: _740  and  _742
REMARK  308  A    between atoms: _742  and  _743
REMARK  309  A    between atoms: _742  and  _745
REMARK  310  A    between atoms: _745  and  _746
REMARK  311  A    between atoms: _746  and  _747
REMARK  312  A    between atoms: _749  and  _751
REMARK  313  A    between atoms: _751  and  _752
REMARK  314  A    between atoms: _751  and  _754
REMARK  315  A    between atoms: _757  and  _759
REMARK  316  A    between atoms: _759  and  _760
REMARK  317  A    between atoms: _759  and  _762
REMARK  318  A    between atoms: _762  and  _763
REMARK                            x       y       z     vdW  Elec       q    Type
REMARK                         _______ _______ _______ _____ _____    ______ ____
ROOT
ATOM      1  C   GLU A   1       6.569   2.145  -1.157  0.00  0.00    +0.238 C 
ATOM      2  N   CYS A   2       6.116   2.293   0.082  0.00  0.00    -0.298 N 
ATOM      3  H   CYS A   2       6.114   3.241   0.510  0.00  0.00    +0.150 HD
ATOM      4  O   GLU A   1       6.631   1.040  -1.724  0.00  0.00    -0.274 OA
ENDROOT
BRANCH   1   5
ATOM      5  CA  GLU A   1       7.019   3.430  -1.866  0.00  0.00    +0.145 C 
BRANCH   5   6
ATOM      6  N   GLU A   1       6.059   4.520  -1.630  0.00  0.00    -0.238 NA
ATOM      7  H   GLU A   1       6.375   5.394  -1.163  0.00  0.00    +0.142 HD
ENDBRANCH   5   6
BRANCH   5   8
ATOM      8  CB  GLU A   1       8.413   3.833  -1.383  0.00  0.00    +0.038 C 
BRANCH   8   9
ATOM      9  CG  GLU A   1       9.066   4.925  -2.215  0.00  0.00    +0.116 C 
BRANCH   9  10
ATOM     10  CD  GLU A   1      10.320   5.513  -1.552  0.00  0.00    +0.365 C 
ATOM     11  OE2 GLU A   1      10.634   5.150  -0.397  0.00  0.00    -0.246 OA
ATOM     12  OE1 GLU A   1      10.991   6.334  -2.215  0.00  0.00    -0.246 OA
ENDBRANCH   9  10
ENDBRANCH   8   9
ENDBRANCH   5   8
ENDBRANCH   1   5
BRANCH   2  13
ATOM     13  CA  CYS A   2       5.625   1.169   0.853  0.00  0.00    +0.149 C 
BRANCH  13  14
ATOM     14  CB  CYS A   2       5.271   1.583   2.266  0.00  0.00    +0.096 C 
ATOM     15  SG  CYS A   2       6.740   2.061   3.257  0.00  0.00    -0.080 S 
ENDBRANCH  13  14
BRANCH  13  16
ATOM     16  C   CYS A   2       4.416   0.547   0.157  0.00  0.00    +0.228 C 
ATOM     17  O   CYS A   2       4.330  -0.676   0.014  0.00  0.00    -0.286 OA
ENDBRANCH  13  16
ENDBRANCH   2  13
TORSDOF 8
REMARK  Name = ../refined-set-2016/4omk/4omk_pocket.pdb
REMARK  318 active torsions:
REMARK  status: ('A' for Active; 'I' for Inactive)
REMARK    1  A    between atoms: _1  and  _3
REMARK    2  A    between atoms: _3  and  _4
REMARK    3  A    between atoms: _3  and  _6
REMARK    4  A    between atoms: _6  and  _7
REMARK    5  A    between atoms: _10  and  _12
REMARK    6  A    between atoms: _12  and  _13
REMARK    7  A    between atoms: _12  and  _15
REMARK    8  A    between atoms: _15  and  _16
REMARK    9  A    between atoms: _21  and  _22
REMARK   10  A    between atoms: _24  and  _26
REMARK   11  A    between atoms: _26  and  _27
REMARK   12  A    between atoms: _26  and  _29
REMARK   13  A    between atoms: _29  and  _30
REMARK   14  A    between atoms: _33  and  _35
REMARK   15  A    between atoms: _35  and  _36
REMARK   16  A    between atoms: _35  and  _38
REMARK   17  A    between atoms: _38  and  _39
REMARK   18  A    between atoms: _41  and  _43
REMARK   19  A    between atoms: _43  and  _44
REMARK   20  A    between atoms: _43  and  _46
REMARK   21  A    between atoms: _46  and  _47
REMARK   22  A    between atoms: _57  and  _59
REMARK   23  A    between atoms: _59  and  _60
REMARK   24  A    between atoms: _59  and  _62
REMARK   25  A    between atoms: _62  and  _63
REMARK   26  A    between atoms: _66  and  _68
REMARK   27  A    between atoms: _68  and  _69
REMARK   28  A    between atoms: _68  and  _71
REMARK   29  A    between atoms: _71  and  _72
REMARK   30  A    between atoms: _75  and  _77
REMARK   31  A    between atoms: _77  and  _78
REMARK   32  A    between atoms: _77  and  _80
REMARK   33  A    between atoms: _80  and  _81
REMARK   34  A    between atoms: _84  and  _86
REMARK   35  A    between atoms: _86  and  _87
REMARK   36  A    between atoms: _86  and  _89
REMARK   37  A    between atoms: _89  and  _90
REMARK   38  A    between atoms: _93  and  _95
REMARK   39  A    between atoms: _95  and  _96
REMARK   40  A    between atoms: _99  and  _101
REMARK   41  A    between atoms: _101  and  _102
REMARK   42  A    between atoms: _101  and  _104
REMARK   43  A    between atoms: _104  and  _105
REMARK   44  A    between atoms: _105  and  _106
REMARK   45  A    between atoms: _106  and  _107
REMARK   46  A    between atoms: _107  and  _108
REMARK   47  A    between atoms: _112  and  _114
REMARK   48  A    between atoms: _114  and  _115
REMARK   49  A    between atoms: _117  and  _119
REMARK   50  A    between atoms: _119  and  _120
REMARK   51  A    between atoms: _119  and  _122
REMARK   52  A    between atoms: _122  and  _123
REMARK   53  A    between atoms: _126  and  _128
REMARK   54  A    between atoms: _128  and  _129
REMARK   55  A    between atoms: _128  and  _131
REMARK   56  A    between atoms: _131  and  _132
REMARK   57  A    between atoms: _135  and  _137
REMARK   58  A    between atoms: _137  and  _138
REMARK   59  A    between atoms: _137  and  _140
REMARK   60  A    between atoms: _140  and  _141
REMARK   61  A    between atoms: _147  and  _149
REMARK   62  A    between atoms: _149  and  _150
REMARK   63  A    between atoms: _149  and  _152
REMARK   64  A    between atoms: _152  and  _153
REMARK   65  A    between atoms: _155  and  _157
REMARK   66  A    between atoms: _157  and  _158
REMARK   67  A    between atoms: _157  and  _160
REMARK   68  A    between atoms: _160  and  _161
REMARK   69  A    between atoms: _161  and  _162
REMARK   70  A    between atoms: _162  and  _163
REMARK   71  A    between atoms: _163  and  _164
REMARK   72  A    between atoms: _168  and  _170
REMARK   73  A    between atoms: _170  and  _171
REMARK   74  A    between atoms: _170  and  _173
REMARK   75  A    between atoms: _173  and  _174
REMARK   76  A    between atoms: _174  and  _175
REMARK   77  A    between atoms: _180  and  _182
REMARK   78  A    between atoms: _182  and  _183
REMARK   79  A    between atoms: _182  and  _185
REMARK   80  A    between atoms: _185  and  _186
REMARK   81  A    between atoms: _189  and  _191
REMARK   82  A    between atoms: _191  and  _192
REMARK   83  A    between atoms: _191  and  _194
REMARK   84  A    between atoms: _194  and  _195
REMARK   85  A    between atoms: _198  and  _200
REMARK   86  A    between atoms: _200  and  _201
REMARK   87  A    between atoms: _200  and  _203
REMARK   88  A    between atoms: _203  and  _204
REMARK   89  A    between atoms: _207  and  _209
REMARK   90  A    between atoms: _209  and  _210
REMARK   91  A    between atoms: _209  and  _212
REMARK   92  A    between atoms: _212  and  _213
REMARK   93  A    between atoms: _213  and  _214
REMARK   94  A    between atoms: _214  and  _215
REMARK   95  A    between atoms: _224  and  _226
REMARK   96  A    between atoms: _226  and  _227
REMARK   97  A    between atoms: _226  and  _229
REMARK   98  A    between atoms: _229  and  _230
REMARK   99  A    between atoms: _233  and  _235
REMARK  100  A    between atoms: _235  and  _236
REMARK  101  A    between atoms: _235  and  _238
REMARK  102  A    between atoms: _238  and  _239
REMARK  103  A    between atoms: _239  and  _240
REMARK  104  A    between atoms: _240  and  _241
REMARK  105  A    between atoms: _241  and  _242
REMARK  106  A    between atoms: _246  and  _248
REMARK  107  A    between atoms: _248  and  _249
REMARK  108  A    between atoms: _248  and  _251
REMARK  109  A    between atoms: _251  and  _252
REMARK  110  A    between atoms: _252  and  _253
REMARK  111  A    between atoms: _255  and  _257
REMARK  112  A    between atoms: _257  and  _258
REMARK  113  A    between atoms: _257  and  _260
REMARK  114  A    between atoms: _260  and  _261
REMARK  115  A    between atoms: _261  and  _262
REMARK  116  A    between atoms: _265  and  _267
REMARK  117  A    between atoms: _267  and  _268
REMARK  118  A    between atoms: _267  and  _270
REMARK  119  A    between atoms: _272  and  _274
REMARK  120  A    between atoms: _274  and  _275
REMARK  121  A    between atoms: _274  and  _277
REMARK  122  A    between atoms: _277  and  _278
REMARK  123  A    between atoms: _281  and  _283
REMARK  124  A    between atoms: _283  and  _284
REMARK  125  A    between atoms: _283  and  _286
REMARK  126  A    between atoms: _286  and  _287
REMARK  127  A    between atoms: _290  and  _292
REMARK  128  A    between atoms: _292  and  _293
REMARK  129  A    between atoms: _292  and  _295
REMARK  130  A    between atoms: _295  and  _296
REMARK  131  A    between atoms: _301  and  _302
REMARK  132  A    between atoms: _304  and  _306
REMARK  133  A    between atoms: _306  and  _307
REMARK  134  A    between atoms: _306  and  _309
REMARK  135  A    between atoms: _309  and  _310
REMARK  136  A    between atoms: _313  and  _315
REMARK  137  A    between atoms: _315  and  _316
REMARK  138  A    between atoms: _315  and  _318
REMARK  139  A    between atoms: _320  and  _322
REMARK  140  A    between atoms: _322  and  _323
REMARK  141  A    between atoms: _322  and  _325
REMARK  142  A    between atoms: _325  and  _326
REMARK  143  A    between atoms: _329  and  _331
REMARK  144  A    between atoms: _331  and  _332
REMARK  145  A    between atoms: _334  and  _336
REMARK  146  A    between atoms: _336  and  _337
REMARK  147  A    between atoms: _336  and  _339
REMARK  148  A    between atoms: _339  and  _340
REMARK  149  A    between atoms: _340  and  _341
REMARK  150  A    between atoms: _341  and  _342
REMARK  151  A    between atoms: _342  and  _343
REMARK  152  A    between atoms: _347  and  _349
REMARK  153  A    between atoms: _349  and  _350
REMARK  154  A    between atoms: _349  and  _352
REMARK  155  A    between atoms: _352  and  _353
REMARK  156  A    between atoms: _358  and  _360
REMARK  157  A    between atoms: _360  and  _361
REMARK  158  A    between atoms: _360  and  _363
REMARK  159  A    between atoms: _363  and  _364
REMARK  160  A    between atoms: _367  and  _369
REMARK  161  A    between atoms: _369  and  _370
REMARK  162  A    between atoms: _369  and  _372
REMARK  163  A    between atoms: _372  and  _373
REMARK  164  A    between atoms: _383  and  _385
REMARK  165  A    between atoms: _385  and  _386
REMARK  166  A    between atoms: _385  and  _388
REMARK  167  A    between atoms: _388  and  _389
REMARK  168  A    between atoms: _389  and  _390
REMARK  169  A    between atoms: _390  and  _391
REMARK  170  A    between atoms: _391  and  _392
REMARK  171  A    between atoms: _397  and  _398
REMARK  172  A    between atoms: _403  and  _405
REMARK  173  A    between atoms: _405  and  _406
REMARK  174  A    between atoms: _409  and  _411
REMARK  175  A    between atoms: _411  and  _412
REMARK  176  A    between atoms: _411  and  _414
REMARK  177  A    between atoms: _417  and  _419
REMARK  178  A    between atoms: _419  and  _420
REMARK  179  A    between atoms: _419  and  _422
REMARK  180  A    between atoms: _422  and  _423
REMARK  181  A    between atoms: _423  and  _424
REMARK  182  A    between atoms: _427  and  _429
REMARK  183  A    between atoms: _429  and  _430
REMARK  184  A    between atoms: _433  and  _435
REMARK  185  A    between atoms: _435  and  _436
REMARK  186  A    between atoms: _435  and  _438
REMARK  187  A    between atoms: _438  and  _439
REMARK  188  A    between atoms: _444  and  _445
REMARK  189  A    between atoms: _447  and  _449
REMARK  190  A    between atoms: _449  and  _450
REMARK  191  A    between atoms: _452  and  _454
REMARK  192  A    between atoms: _454  and  _455
REMARK  193  A    between atoms: _454  and  _457
REMARK  194  A    between atoms: _457  and  _458
REMARK  195  A    between atoms: _458  and  _459
REMARK  196  A    between atoms: _462  and  _464
REMARK  197  A    between atoms: _464  and  _465
REMARK  198  A    between atoms: _464  and  _467
REMARK  199  A    between atoms: _467  and  _468
REMARK  200  A    between atoms: _474  and  _476
REMARK  201  A    between atoms: _476  and  _477
REMARK  202  A    between atoms: _476  and  _479
REMARK  203  A    between atoms: _479  and  _480
REMARK  204  A    between atoms: _483  and  _485
REMARK  205  A    between atoms: _485  and  _486
REMARK  206  A    between atoms: _485  and  _488
REMARK  207  A    between atoms: _488  and  _489
REMARK  208  A    between atoms: _489  and  _490
REMARK  209  A    between atoms: _492  and  _494
REMARK  210  A    between atoms: _494  and  _495
REMARK  211  A    between atoms: _494  and  _497
REMARK  212  A    between atoms: _497  and  _498
REMARK  213  A    between atoms: _504  and  _506
REMARK  214  A    between atoms: _506  and  _507
REMARK  215  A    between atoms: _506  and  _509
REMARK  216  A    between atoms: _509  and  _510
REMARK  217  A    between atoms: _510  and  _511
REMARK  218  A    between atoms: _514  and  _516
REMARK  219  A    between atoms: _516  and  _517
REMARK  220  A    between atoms: _516  and  _519
REMARK  221  A    between atoms: _519  and  _520
REMARK  222  A    between atoms: _523  and  _525
REMARK  223  A    between atoms: _525  and  _526
REMARK  224  A    between atoms: _525  and  _528
REMARK  225  A    between atoms: _528  and  _529
REMARK  226  A    between atoms: _532  and  _534
REMARK  227  A    between atoms: _534  and  _535
REMARK  228  A    between atoms: _534  and  _537
REMARK  229  A    between atoms: _537  and  _538
REMARK  230  A    between atoms: _544  and  _546
REMARK  231  A    between atoms: _546  and  _547
REMARK  232  A    between atoms: _546  and  _549
REMARK  233  A    between atoms: _552  and  _554
REMARK  234  A    between atoms: _554  and  _555
REMARK  235  A    between atoms: _559  and  _560
REMARK  236  A    between atoms: _565  and  _567
REMARK  237  A    between atoms: _567  and  _568
REMARK  238  A    between atoms: _567  and  _570
REMARK  239  A    between atoms: _570  and  _571
REMARK  240  A    between atoms: _574  and  _576
REMARK  241  A    between atoms: _576  and  _577
REMARK  242  A    between atoms: _576  and  _579
REMARK  243  A    between atoms: _579  and  _580
REMARK  244  A    between atoms: _587  and  _588
REMARK  245  A    between atoms: _593  and  _595
REMARK  246  A    between atoms: _595  and  _596
REMARK  247  A    between atoms: _595  and  _598
REMARK  248  A    between atoms: _601  and  _603
REMARK  249  A    between atoms: _603  and  _604
REMARK  250  A    between atoms: _607  and  _609
REMARK  251  A    between atoms: _609  and  _610
REMARK  252  A    between atoms: _609  and  _612
REMARK  253  A    between atoms: _612  and  _613
REMARK  254  A    between atoms: _618  and  _619
REMARK  255  A    between atoms: _621  and  _623
REMARK  256  A    between atoms: _623  and  _624
REMARK  257  A    between atoms: _623  and  _626
REMARK  258  A    between atoms: _626  and  _627
REMARK  259  A    between atoms: _632  and  _634
REMARK  260  A    between atoms: _634  and  _635
REMARK  261  A    between atoms: _634  and  _637
REMARK  262  A    between atoms: _637  and  _638
REMARK  263  A    between atoms: _641  and  _643
REMARK  264  A    between atoms: _643  and  _644
REMARK  265  A    between atoms: _643  and  _646
REMARK  266  A    between atoms: _646  and  _647
REMARK  267  A    between atoms: _650  and  _652
REMARK  268  A    between atoms: _652  and  _653
REMARK  269  A    between atoms: _652  and  _655
REMARK  270  A    between atoms: _655  and  _656
REMARK  271  A    between atoms: _656  and  _657
REMARK  272  A    between atoms: _657  and  _658
REMARK  273  A    between atoms: _658  and  _659
REMARK  274  A    between atoms: _663  and  _665
REMARK  275  A    between atoms: _665  and  _666
REMARK  276  A    between atoms: _665  and  _668
REMARK  277  A    between atoms: _668  and  _669
REMARK  278  A    between atoms: _675  and  _677
REMARK  279  A    between atoms: _677  and  _678
REMARK  280  A    between atoms: _677  and  _680
REMARK  281  A    between atoms: _680  and  _681
REMARK  282  A    between atoms: _684  and  _686
REMARK  283  A    between atoms: _686  and  _687
REMARK  284  A    between atoms: _686  and  _689
REMARK  285  A    between atoms: _689  and  _690
REMARK  286  A    between atoms: _692  and  _694
REMARK  287  A    between atoms: _694  and  _695
REMARK  288  A    between atoms: _694  and  _697
REMARK  289  A    between atoms: _697  and  _698
REMARK  290  A    between atoms: _701  and  _703
REMARK  291  A    between atoms: _703  and  _704
REMARK  292  A    between atoms: _703  and  _706
REMARK  293  A    between atoms: _706  and  _707
REMARK  294  A    between atoms: _707  and  _708
REMARK  295  A    between atoms: _708  and  _709
REMARK  296  A    between atoms: _718  and  _720
REMARK  297  A    between atoms: _720  and  _721
REMARK  298  A    between atoms: _720  and  _723
REMARK  299  A    between atoms: _723  and  _724
REMARK  300  A    between atoms: _724  and  _725
REMARK  301  A    between atoms: _725  and  _726
REMARK  302  A    between atoms: _726  and  _727
REMARK  303  A    between atoms: _731  and  _733
REMARK  304  A    between atoms: _733  and  _734
REMARK  305  A    between atoms: _733  and  _736
REMARK  306  A    between atoms: _736  and  _737
REMARK  307  A    between atoms: _740  and  _742
REMARK  308  A    between atoms: _742  and  _743
REMARK  309  A    between atoms: _742  and  _745
REMARK  310  A    between atoms: _745  and  _746
REMARK  311  A    between atoms: _746  and  _747
REMARK  312  A    between atoms: _749  and  _751
REMARK  313  A    between atoms: _751  and  _752
REMARK  314  A    between atoms: _751  and  _754
REMARK  315  A    between atoms: _757  and  _759
REMARK  316  A    between atoms: _759  and  _760
REMARK  317  A    between atoms: _759  and  _762
REMARK  318  A    between atoms: _762  and  _763
REMARK                            x       y       z     vdW  Elec       q    Type
REMARK                         _______ _______ _______ _____ _____    ______ ____
ROOT
ATOM      1  CA  ILE A   1      10.432  -7.332   1.508  0.00  0.00    +0.133 C 
ENDROOT
BRANCH   1   2
ATOM      2  N   ILE A   1       9.498  -7.947   2.421  0.00  0.00    -0.239 NA
ATOM      3  H   ILE A   1       9.559  -7.717   3.433  0.00  0.00    +0.142 HD
ENDBRANCH   1   2
BRANCH   1   4
ATOM      4  C   ILE A   1      11.858  -7.406   2.037  0.00  0.00    +0.224 C 
ATOM      5  O   ILE A   1      12.104  -7.378   3.231  0.00  0.00    -0.287 OA
ENDBRANCH   1   4
BRANCH   1   6
ATOM      6  CB  ILE A   1      10.075  -5.865   1.241  0.00  0.00    +0.023 C 
ATOM      7  CG2 ILE A   1       8.686  -5.761   0.655  0.00  0.00    +0.002 C 
BRANCH   6   8
ATOM      8  CG1 ILE A   1      10.228  -5.031   2.510  0.00  0.00    +0.002 C 
ATOM      9  CD1 ILE A   1      10.061  -3.529   2.284  0.00  0.00    +0.000 C 
ENDBRANCH   6   8
ENDBRANCH   1   6
TORSDOF 4
REMARK  Name = ../refined-set-2016/4omk/4omk_pocket.pdb
REMARK  318 active torsions:
REMARK  status: ('A' for Active; 'I' for Inactive)
REMARK    1  A    between atoms: _1  and  _3
REMARK    2  A    between atoms: _3  and  _4
REMARK    3  A    between atoms: _3  and  _6
REMARK    4  A    between atoms: _6  and  _7
REMARK    5  A    between atoms: _10  and  _12
REMARK    6  A    between atoms: _12  and  _13
REMARK    7  A    between atoms: _12  and  _15
REMARK    8  A    between atoms: _15  and  _16
REMARK    9  A    between atoms: _21  and  _22
REMARK   10  A    between atoms: _24  and  _26
REMARK   11  A    between atoms: _26  and  _27
REMARK   12  A    between atoms: _26  and  _29
REMARK   13  A    between atoms: _29  and  _30
REMARK   14  A    between atoms: _33  and  _35
REMARK   15  A    between atoms: _35  and  _36
REMARK   16  A    between atoms: _35  and  _38
REMARK   17  A    between atoms: _38  and  _39
REMARK   18  A    between atoms: _41  and  _43
REMARK   19  A    between atoms: _43  and  _44
REMARK   20  A    between atoms: _43  and  _46
REMARK   21  A    between atoms: _46  and  _47
REMARK   22  A    between atoms: _57  and  _59
REMARK   23  A    between atoms: _59  and  _60
REMARK   24  A    between atoms: _59  and  _62
REMARK   25  A    between atoms: _62  and  _63
REMARK   26  A    between atoms: _66  and  _68
REMARK   27  A    between atoms: _68  and  _69
REMARK   28  A    between atoms: _68  and  _71
REMARK   29  A    between atoms: _71  and  _72
REMARK   30  A    between atoms: _75  and  _77
REMARK   31  A    between atoms: _77  and  _78
REMARK   32  A    between atoms: _77  and  _80
REMARK   33  A    between atoms: _80  and  _81
REMARK   34  A    between atoms: _84  and  _86
REMARK   35  A    between atoms: _86  and  _87
REMARK   36  A    between atoms: _86  and  _89
REMARK   37  A    between atoms: _89  and  _90
REMARK   38  A    between atoms: _93  and  _95
REMARK   39  A    between atoms: _95  and  _96
REMARK   40  A    between atoms: _99  and  _101
REMARK   41  A    between atoms: _101  and  _102
REMARK   42  A    between atoms: _101  and  _104
REMARK   43  A    between atoms: _104  and  _105
REMARK   44  A    between atoms: _105  and  _106
REMARK   45  A    between atoms: _106  and  _107
REMARK   46  A    between atoms: _107  and  _108
REMARK   47  A    between atoms: _112  and  _114
REMARK   48  A    between atoms: _114  and  _115
REMARK   49  A    between atoms: _117  and  _119
REMARK   50  A    between atoms: _119  and  _120
REMARK   51  A    between atoms: _119  and  _122
REMARK   52  A    between atoms: _122  and  _123
REMARK   53  A    between atoms: _126  and  _128
REMARK   54  A    between atoms: _128  and  _129
REMARK   55  A    between atoms: _128  and  _131
REMARK   56  A    between atoms: _131  and  _132
REMARK   57  A    between atoms: _135  and  _137
REMARK   58  A    between atoms: _137  and  _138
REMARK   59  A    between atoms: _137  and  _140
REMARK   60  A    between atoms: _140  and  _141
REMARK   61  A    between atoms: _147  and  _149
REMARK   62  A    between atoms: _149  and  _150
REMARK   63  A    between atoms: _149  and  _152
REMARK   64  A    between atoms: _152  and  _153
REMARK   65  A    between atoms: _155  and  _157
REMARK   66  A    between atoms: _157  and  _158
REMARK   67  A    between atoms: _157  and  _160
REMARK   68  A    between atoms: _160  and  _161
REMARK   69  A    between atoms: _161  and  _162
REMARK   70  A    between atoms: _162  and  _163
REMARK   71  A    between atoms: _163  and  _164
REMARK   72  A    between atoms: _168  and  _170
REMARK   73  A    between atoms: _170  and  _171
REMARK   74  A    between atoms: _170  and  _173
REMARK   75  A    between atoms: _173  and  _174
REMARK   76  A    between atoms: _174  and  _175
REMARK   77  A    between atoms: _180  and  _182
REMARK   78  A    between atoms: _182  and  _183
REMARK   79  A    between atoms: _182  and  _185
REMARK   80  A    between atoms: _185  and  _186
REMARK   81  A    between atoms: _189  and  _191
REMARK   82  A    between atoms: _191  and  _192
REMARK   83  A    between atoms: _191  and  _194
REMARK   84  A    between atoms: _194  and  _195
REMARK   85  A    between atoms: _198  and  _200
REMARK   86  A    between atoms: _200  and  _201
REMARK   87  A    between atoms: _200  and  _203
REMARK   88  A    between atoms: _203  and  _204
REMARK   89  A    between atoms: _207  and  _209
REMARK   90  A    between atoms: _209  and  _210
REMARK   91  A    between atoms: _209  and  _212
REMARK   92  A    between atoms: _212  and  _213
REMARK   93  A    between atoms: _213  and  _214
REMARK   94  A    between atoms: _214  and  _215
REMARK   95  A    between atoms: _224  and  _226
REMARK   96  A    between atoms: _226  and  _227
REMARK   97  A    between atoms: _226  and  _229
REMARK   98  A    between atoms: _229  and  _230
REMARK   99  A    between atoms: _233  and  _235
REMARK  100  A    between atoms: _235  and  _236
REMARK  101  A    between atoms: _235  and  _238
REMARK  102  A    between atoms: _238  and  _239
REMARK  103  A    between atoms: _239  and  _240
REMARK  104  A    between atoms: _240  and  _241
REMARK  105  A    between atoms: _241  and  _242
REMARK  106  A    between atoms: _246  and  _248
REMARK  107  A    between atoms: _248  and  _249
REMARK  108  A    between atoms: _248  and  _251
REMARK  109  A    between atoms: _251  and  _252
REMARK  110  A    between atoms: _252  and  _253
REMARK  111  A    between atoms: _255  and  _257
REMARK  112  A    between atoms: _257  and  _258
REMARK  113  A    between atoms: _257  and  _260
REMARK  114  A    between atoms: _260  and  _261
REMARK  115  A    between atoms: _261  and  _262
REMARK  116  A    between atoms: _265  and  _267
REMARK  117  A    between atoms: _267  and  _268
REMARK  118  A    between atoms: _267  and  _270
REMARK  119  A    between atoms: _272  and  _274
REMARK  120  A    between atoms: _274  and  _275
REMARK  121  A    between atoms: _274  and  _277
REMARK  122  A    between atoms: _277  and  _278
REMARK  123  A    between atoms: _281  and  _283
REMARK  124  A    between atoms: _283  and  _284
REMARK  125  A    between atoms: _283  and  _286
REMARK  126  A    between atoms: _286  and  _287
REMARK  127  A    between atoms: _290  and  _292
REMARK  128  A    between atoms: _292  and  _293
REMARK  129  A    between atoms: _292  and  _295
REMARK  130  A    between atoms: _295  and  _296
REMARK  131  A    between atoms: _301  and  _302
REMARK  132  A    between atoms: _304  and  _306
REMARK  133  A    between atoms: _306  and  _307
REMARK  134  A    between atoms: _306  and  _309
REMARK  135  A    between atoms: _309  and  _310
REMARK  136  A    between atoms: _313  and  _315
REMARK  137  A    between atoms: _315  and  _316
REMARK  138  A    between atoms: _315  and  _318
REMARK  139  A    between atoms: _320  and  _322
REMARK  140  A    between atoms: _322  and  _323
REMARK  141  A    between atoms: _322  and  _325
REMARK  142  A    between atoms: _325  and  _326
REMARK  143  A    between atoms: _329  and  _331
REMARK  144  A    between atoms: _331  and  _332
REMARK  145  A    between atoms: _334  and  _336
REMARK  146  A    between atoms: _336  and  _337
REMARK  147  A    between atoms: _336  and  _339
REMARK  148  A    between atoms: _339  and  _340
REMARK  149  A    between atoms: _340  and  _341
REMARK  150  A    between atoms: _341  and  _342
REMARK  151  A    between atoms: _342  and  _343
REMARK  152  A    between atoms: _347  and  _349
REMARK  153  A    between atoms: _349  and  _350
REMARK  154  A    between atoms: _349  and  _352
REMARK  155  A    between atoms: _352  and  _353
REMARK  156  A    between atoms: _358  and  _360
REMARK  157  A    between atoms: _360  and  _361
REMARK  158  A    between atoms: _360  and  _363
REMARK  159  A    between atoms: _363  and  _364
REMARK  160  A    between atoms: _367  and  _369
REMARK  161  A    between atoms: _369  and  _370
REMARK  162  A    between atoms: _369  and  _372
REMARK  163  A    between atoms: _372  and  _373
REMARK  164  A    between atoms: _383  and  _385
REMARK  165  A    between atoms: _385  and  _386
REMARK  166  A    between atoms: _385  and  _388
REMARK  167  A    between atoms: _388  and  _389
REMARK  168  A    between atoms: _389  and  _390
REMARK  169  A    between atoms: _390  and  _391
REMARK  170  A    between atoms: _391  and  _392
REMARK  171  A    between atoms: _397  and  _398
REMARK  172  A    between atoms: _403  and  _405
REMARK  173  A    between atoms: _405  and  _406
REMARK  174  A    between atoms: _409  and  _411
REMARK  175  A    between atoms: _411  and  _412
REMARK  176  A    between atoms: _411  and  _414
REMARK  177  A    between atoms: _417  and  _419
REMARK  178  A    between atoms: _419  and  _420
REMARK  179  A    between atoms: _419  and  _422
REMARK  180  A    between atoms: _422  and  _423
REMARK  181  A    between atoms: _423  and  _424
REMARK  182  A    between atoms: _427  and  _429
REMARK  183  A    between atoms: _429  and  _430
REMARK  184  A    between atoms: _433  and  _435
REMARK  185  A    between atoms: _435  and  _436
REMARK  186  A    between atoms: _435  and  _438
REMARK  187  A    between atoms: _438  and  _439
REMARK  188  A    between atoms: _444  and  _445
REMARK  189  A    between atoms: _447  and  _449
REMARK  190  A    between atoms: _449  and  _450
REMARK  191  A    between atoms: _452  and  _454
REMARK  192  A    between atoms: _454  and  _455
REMARK  193  A    between atoms: _454  and  _457
REMARK  194  A    between atoms: _457  and  _458
REMARK  195  A    between atoms: _458  and  _459
REMARK  196  A    between atoms: _462  and  _464
REMARK  197  A    between atoms: _464  and  _465
REMARK  198  A    between atoms: _464  and  _467
REMARK  199  A    between atoms: _467  and  _468
REMARK  200  A    between atoms: _474  and  _476
REMARK  201  A    between atoms: _476  and  _477
REMARK  202  A    between atoms: _476  and  _479
REMARK  203  A    between atoms: _479  and  _480
REMARK  204  A    between atoms: _483  and  _485
REMARK  205  A    between atoms: _485  and  _486
REMARK  206  A    between atoms: _485  and  _488
REMARK  207  A    between atoms: _488  and  _489
REMARK  208  A    between atoms: _489  and  _490
REMARK  209  A    between atoms: _492  and  _494
REMARK  210  A    between atoms: _494  and  _495
REMARK  211  A    between atoms: _494  and  _497
REMARK  212  A    between atoms: _497  and  _498
REMARK  213  A    between atoms: _504  and  _506
REMARK  214  A    between atoms: _506  and  _507
REMARK  215  A    between atoms: _506  and  _509
REMARK  216  A    between atoms: _509  and  _510
REMARK  217  A    between atoms: _510  and  _511
REMARK  218  A    between atoms: _514  and  _516
REMARK  219  A    between atoms: _516  and  _517
REMARK  220  A    between atoms: _516  and  _519
REMARK  221  A    between atoms: _519  and  _520
REMARK  222  A    between atoms: _523  and  _525
REMARK  223  A    between atoms: _525  and  _526
REMARK  224  A    between atoms: _525  and  _528
REMARK  225  A    between atoms: _528  and  _529
REMARK  226  A    between atoms: _532  and  _534
REMARK  227  A    between atoms: _534  and  _535
REMARK  228  A    between atoms: _534  and  _537
REMARK  229  A    between atoms: _537  and  _538
REMARK  230  A    between atoms: _544  and  _546
REMARK  231  A    between atoms: _546  and  _547
REMARK  232  A    between atoms: _546  and  _549
REMARK  233  A    between atoms: _552  and  _554
REMARK  234  A    between atoms: _554  and  _555
REMARK  235  A    between atoms: _559  and  _560
REMARK  236  A    between atoms: _565  and  _567
REMARK  237  A    between atoms: _567  and  _568
REMARK  238  A    between atoms: _567  and  _570
REMARK  239  A    between atoms: _570  and  _571
REMARK  240  A    between atoms: _574  and  _576
REMARK  241  A    between atoms: _576  and  _577
REMARK  242  A    between atoms: _576  and  _579
REMARK  243  A    between atoms: _579  and  _580
REMARK  244  A    between atoms: _587  and  _588
REMARK  245  A    between atoms: _593  and  _595
REMARK  246  A    between atoms: _595  and  _596
REMARK  247  A    between atoms: _595  and  _598
REMARK  248  A    between atoms: _601  and  _603
REMARK  249  A    between atoms: _603  and  _604
REMARK  250  A    between atoms: _607  and  _609
REMARK  251  A    between atoms: _609  and  _610
REMARK  252  A    between atoms: _609  and  _612
REMARK  253  A    between atoms: _612  and  _613
REMARK  254  A    between atoms: _618  and  _619
REMARK  255  A    between atoms: _621  and  _623
REMARK  256  A    between atoms: _623  and  _624
REMARK  257  A    between atoms: _623  and  _626
REMARK  258  A    between atoms: _626  and  _627
REMARK  259  A    between atoms: _632  and  _634
REMARK  260  A    between atoms: _634  and  _635
REMARK  261  A    between atoms: _634  and  _637
REMARK  262  A    between atoms: _637  and  _638
REMARK  263  A    between atoms: _641  and  _643
REMARK  264  A    between atoms: _643  and  _644
REMARK  265  A    between atoms: _643  and  _646
REMARK  266  A    between atoms: _646  and  _647
REMARK  267  A    between atoms: _650  and  _652
REMARK  268  A    between atoms: _652  and  _653
REMARK  269  A    between atoms: _652  and  _655
REMARK  270  A    between atoms: _655  and  _656
REMARK  271  A    between atoms: _656  and  _657
REMARK  272  A    between atoms: _657  and  _658
REMARK  273  A    between atoms: _658  and  _659
REMARK  274  A    between atoms: _663  and  _665
REMARK  275  A    between atoms: _665  and  _666
REMARK  276  A    between atoms: _665  and  _668
REMARK  277  A    between atoms: _668  and  _669
REMARK  278  A    between atoms: _675  and  _677
REMARK  279  A    between atoms: _677  and  _678
REMARK  280  A    between atoms: _677  and  _680
REMARK  281  A    between atoms: _680  and  _681
REMARK  282  A    between atoms: _684  and  _686
REMARK  283  A    between atoms: _686  and  _687
REMARK  284  A    between atoms: _686  and  _689
REMARK  285  A    between atoms: _689  and  _690
REMARK  286  A    between atoms: _692  and  _694
REMARK  287  A    between atoms: _694  and  _695
REMARK  288  A    between atoms: _694  and  _697
REMARK  289  A    between atoms: _697  and  _698
REMARK  290  A    between atoms: _701  and  _703
REMARK  291  A    between atoms: _703  and  _704
REMARK  292  A    between atoms: _703  and  _706
REMARK  293  A    between atoms: _706  and  _707
REMARK  294  A    between atoms: _707  and  _708
REMARK  295  A    between atoms: _708  and  _709
REMARK  296  A    between atoms: _718  and  _720
REMARK  297  A    between atoms: _720  and  _721
REMARK  298  A    between atoms: _720  and  _723
REMARK  299  A    between atoms: _723  and  _724
REMARK  300  A    between atoms: _724  and  _725
REMARK  301  A    between atoms: _725  and  _726
REMARK  302  A    between atoms: _726  and  _727
REMARK  303  A    between atoms: _731  and  _733
REMARK  304  A    between atoms: _733  and  _734
REMARK  305  A    between atoms: _733  and  _736
REMARK  306  A    between atoms: _736  and  _737
REMARK  307  A    between atoms: _740  and  _742
REMARK  308  A    between atoms: _742  and  _743
REMARK  309  A    between atoms: _742  and  _745
REMARK  310  A    between atoms: _745  and  _746
REMARK  311  A    between atoms: _746  and  _747
REMARK  312  A    between atoms: _749  and  _751
REMARK  313  A    between atoms: _751  and  _752
REMARK  314  A    between atoms: _751  and  _754
REMARK  315  A    between atoms: _757  and  _759
REMARK  316  A    between atoms: _759  and  _760
REMARK  317  A    between atoms: _759  and  _762
REMARK  318  A    between atoms: _762  and  _763
REMARK                            x       y       z     vdW  Elec       q    Type
REMARK                         _______ _______ _______ _____ _____    ______ ____
ROOT
ATOM      1  CA  ILE A   1      16.097  -4.220   1.664  0.00  0.00    +0.133 C 
ENDROOT
BRANCH   1   2
ATOM      2  N   ILE A   1      15.502  -5.516   1.925  0.00  0.00    -0.239 NA
ATOM      3  H   ILE A   1      15.677  -5.980   2.839  0.00  0.00    +0.142 HD
ENDBRANCH   1   2
BRANCH   1   4
ATOM      4  CB  ILE A   1      15.673  -3.170   2.738  0.00  0.00    +0.023 C 
ATOM      5  CG2 ILE A   1      16.425  -1.845   2.535  0.00  0.00    +0.002 C 
BRANCH   4   6
ATOM      6  CG1 ILE A   1      14.147  -2.983   2.730  0.00  0.00    +0.002 C 
ATOM      7  CD1 ILE A   1      13.623  -1.962   3.748  0.00  0.00    +0.000 C 
ENDBRANCH   4   6
ENDBRANCH   1   4
BRANCH   1   8
ATOM      8  C   ILE A   1      17.620  -4.318   1.640  0.00  0.00    +0.224 C 
ATOM      9  O   ILE A   1      18.239  -4.918   2.524  0.00  0.00    -0.287 OA
ENDBRANCH   1   8
TORSDOF 4
REMARK  Name = ../refined-set-2016/4omk/4omk_pocket.pdb
REMARK  318 active torsions:
REMARK  status: ('A' for Active; 'I' for Inactive)
REMARK    1  A    between atoms: _1  and  _3
REMARK    2  A    between atoms: _3  and  _4
REMARK    3  A    between atoms: _3  and  _6
REMARK    4  A    between atoms: _6  and  _7
REMARK    5  A    between atoms: _10  and  _12
REMARK    6  A    between atoms: _12  and  _13
REMARK    7  A    between atoms: _12  and  _15
REMARK    8  A    between atoms: _15  and  _16
REMARK    9  A    between atoms: _21  and  _22
REMARK   10  A    between atoms: _24  and  _26
REMARK   11  A    between atoms: _26  and  _27
REMARK   12  A    between atoms: _26  and  _29
REMARK   13  A    between atoms: _29  and  _30
REMARK   14  A    between atoms: _33  and  _35
REMARK   15  A    between atoms: _35  and  _36
REMARK   16  A    between atoms: _35  and  _38
REMARK   17  A    between atoms: _38  and  _39
REMARK   18  A    between atoms: _41  and  _43
REMARK   19  A    between atoms: _43  and  _44
REMARK   20  A    between atoms: _43  and  _46
REMARK   21  A    between atoms: _46  and  _47
REMARK   22  A    between atoms: _57  and  _59
REMARK   23  A    between atoms: _59  and  _60
REMARK   24  A    between atoms: _59  and  _62
REMARK   25  A    between atoms: _62  and  _63
REMARK   26  A    between atoms: _66  and  _68
REMARK   27  A    between atoms: _68  and  _69
REMARK   28  A    between atoms: _68  and  _71
REMARK   29  A    between atoms: _71  and  _72
REMARK   30  A    between atoms: _75  and  _77
REMARK   31  A    between atoms: _77  and  _78
REMARK   32  A    between atoms: _77  and  _80
REMARK   33  A    between atoms: _80  and  _81
REMARK   34  A    between atoms: _84  and  _86
REMARK   35  A    between atoms: _86  and  _87
REMARK   36  A    between atoms: _86  and  _89
REMARK   37  A    between atoms: _89  and  _90
REMARK   38  A    between atoms: _93  and  _95
REMARK   39  A    between atoms: _95  and  _96
REMARK   40  A    between atoms: _99  and  _101
REMARK   41  A    between atoms: _101  and  _102
REMARK   42  A    between atoms: _101  and  _104
REMARK   43  A    between atoms: _104  and  _105
REMARK   44  A    between atoms: _105  and  _106
REMARK   45  A    between atoms: _106  and  _107
REMARK   46  A    between atoms: _107  and  _108
REMARK   47  A    between atoms: _112  and  _114
REMARK   48  A    between atoms: _114  and  _115
REMARK   49  A    between atoms: _117  and  _119
REMARK   50  A    between atoms: _119  and  _120
REMARK   51  A    between atoms: _119  and  _122
REMARK   52  A    between atoms: _122  and  _123
REMARK   53  A    between atoms: _126  and  _128
REMARK   54  A    between atoms: _128  and  _129
REMARK   55  A    between atoms: _128  and  _131
REMARK   56  A    between atoms: _131  and  _132
REMARK   57  A    between atoms: _135  and  _137
REMARK   58  A    between atoms: _137  and  _138
REMARK   59  A    between atoms: _137  and  _140
REMARK   60  A    between atoms: _140  and  _141
REMARK   61  A    between atoms: _147  and  _149
REMARK   62  A    between atoms: _149  and  _150
REMARK   63  A    between atoms: _149  and  _152
REMARK   64  A    between atoms: _152  and  _153
REMARK   65  A    between atoms: _155  and  _157
REMARK   66  A    between atoms: _157  and  _158
REMARK   67  A    between atoms: _157  and  _160
REMARK   68  A    between atoms: _160  and  _161
REMARK   69  A    between atoms: _161  and  _162
REMARK   70  A    between atoms: _162  and  _163
REMARK   71  A    between atoms: _163  and  _164
REMARK   72  A    between atoms: _168  and  _170
REMARK   73  A    between atoms: _170  and  _171
REMARK   74  A    between atoms: _170  and  _173
REMARK   75  A    between atoms: _173  and  _174
REMARK   76  A    between atoms: _174  and  _175
REMARK   77  A    between atoms: _180  and  _182
REMARK   78  A    between atoms: _182  and  _183
REMARK   79  A    between atoms: _182  and  _185
REMARK   80  A    between atoms: _185  and  _186
REMARK   81  A    between atoms: _189  and  _191
REMARK   82  A    between atoms: _191  and  _192
REMARK   83  A    between atoms: _191  and  _194
REMARK   84  A    between atoms: _194  and  _195
REMARK   85  A    between atoms: _198  and  _200
REMARK   86  A    between atoms: _200  and  _201
REMARK   87  A    between atoms: _200  and  _203
REMARK   88  A    between atoms: _203  and  _204
REMARK   89  A    between atoms: _207  and  _209
REMARK   90  A    between atoms: _209  and  _210
REMARK   91  A    between atoms: _209  and  _212
REMARK   92  A    between atoms: _212  and  _213
REMARK   93  A    between atoms: _213  and  _214
REMARK   94  A    between atoms: _214  and  _215
REMARK   95  A    between atoms: _224  and  _226
REMARK   96  A    between atoms: _226  and  _227
REMARK   97  A    between atoms: _226  and  _229
REMARK   98  A    between atoms: _229  and  _230
REMARK   99  A    between atoms: _233  and  _235
REMARK  100  A    between atoms: _235  and  _236
REMARK  101  A    between atoms: _235  and  _238
REMARK  102  A    between atoms: _238  and  _239
REMARK  103  A    between atoms: _239  and  _240
REMARK  104  A    between atoms: _240  and  _241
REMARK  105  A    between atoms: _241  and  _242
REMARK  106  A    between atoms: _246  and  _248
REMARK  107  A    between atoms: _248  and  _249
REMARK  108  A    between atoms: _248  and  _251
REMARK  109  A    between atoms: _251  and  _252
REMARK  110  A    between atoms: _252  and  _253
REMARK  111  A    between atoms: _255  and  _257
REMARK  112  A    between atoms: _257  and  _258
REMARK  113  A    between atoms: _257  and  _260
REMARK  114  A    between atoms: _260  and  _261
REMARK  115  A    between atoms: _261  and  _262
REMARK  116  A    between atoms: _265  and  _267
REMARK  117  A    between atoms: _267  and  _268
REMARK  118  A    between atoms: _267  and  _270
REMARK  119  A    between atoms: _272  and  _274
REMARK  120  A    between atoms: _274  and  _275
REMARK  121  A    between atoms: _274  and  _277
REMARK  122  A    between atoms: _277  and  _278
REMARK  123  A    between atoms: _281  and  _283
REMARK  124  A    between atoms: _283  and  _284
REMARK  125  A    between atoms: _283  and  _286
REMARK  126  A    between atoms: _286  and  _287
REMARK  127  A    between atoms: _290  and  _292
REMARK  128  A    between atoms: _292  and  _293
REMARK  129  A    between atoms: _292  and  _295
REMARK  130  A    between atoms: _295  and  _296
REMARK  131  A    between atoms: _301  and  _302
REMARK  132  A    between atoms: _304  and  _306
REMARK  133  A    between atoms: _306  and  _307
REMARK  134  A    between atoms: _306  and  _309
REMARK  135  A    between atoms: _309  and  _310
REMARK  136  A    between atoms: _313  and  _315
REMARK  137  A    between atoms: _315  and  _316
REMARK  138  A    between atoms: _315  and  _318
REMARK  139  A    between atoms: _320  and  _322
REMARK  140  A    between atoms: _322  and  _323
REMARK  141  A    between atoms: _322  and  _325
REMARK  142  A    between atoms: _325  and  _326
REMARK  143  A    between atoms: _329  and  _331
REMARK  144  A    between atoms: _331  and  _332
REMARK  145  A    between atoms: _334  and  _336
REMARK  146  A    between atoms: _336  and  _337
REMARK  147  A    between atoms: _336  and  _339
REMARK  148  A    between atoms: _339  and  _340
REMARK  149  A    between atoms: _340  and  _341
REMARK  150  A    between atoms: _341  and  _342
REMARK  151  A    between atoms: _342  and  _343
REMARK  152  A    between atoms: _347  and  _349
REMARK  153  A    between atoms: _349  and  _350
REMARK  154  A    between atoms: _349  and  _352
REMARK  155  A    between atoms: _352  and  _353
REMARK  156  A    between atoms: _358  and  _360
REMARK  157  A    between atoms: _360  and  _361
REMARK  158  A    between atoms: _360  and  _363
REMARK  159  A    between atoms: _363  and  _364
REMARK  160  A    between atoms: _367  and  _369
REMARK  161  A    between atoms: _369  and  _370
REMARK  162  A    between atoms: _369  and  _372
REMARK  163  A    between atoms: _372  and  _373
REMARK  164  A    between atoms: _383  and  _385
REMARK  165  A    between atoms: _385  and  _386
REMARK  166  A    between atoms: _385  and  _388
REMARK  167  A    between atoms: _388  and  _389
REMARK  168  A    between atoms: _389  and  _390
REMARK  169  A    between atoms: _390  and  _391
REMARK  170  A    between atoms: _391  and  _392
REMARK  171  A    between atoms: _397  and  _398
REMARK  172  A    between atoms: _403  and  _405
REMARK  173  A    between atoms: _405  and  _406
REMARK  174  A    between atoms: _409  and  _411
REMARK  175  A    between atoms: _411  and  _412
REMARK  176  A    between atoms: _411  and  _414
REMARK  177  A    between atoms: _417  and  _419
REMARK  178  A    between atoms: _419  and  _420
REMARK  179  A    between atoms: _419  and  _422
REMARK  180  A    between atoms: _422  and  _423
REMARK  181  A    between atoms: _423  and  _424
REMARK  182  A    between atoms: _427  and  _429
REMARK  183  A    between atoms: _429  and  _430
REMARK  184  A    between atoms: _433  and  _435
REMARK  185  A    between atoms: _435  and  _436
REMARK  186  A    between atoms: _435  and  _438
REMARK  187  A    between atoms: _438  and  _439
REMARK  188  A    between atoms: _444  and  _445
REMARK  189  A    between atoms: _447  and  _449
REMARK  190  A    between atoms: _449  and  _450
REMARK  191  A    between atoms: _452  and  _454
REMARK  192  A    between atoms: _454  and  _455
REMARK  193  A    between atoms: _454  and  _457
REMARK  194  A    between atoms: _457  and  _458
REMARK  195  A    between atoms: _458  and  _459
REMARK  196  A    between atoms: _462  and  _464
REMARK  197  A    between atoms: _464  and  _465
REMARK  198  A    between atoms: _464  and  _467
REMARK  199  A    between atoms: _467  and  _468
REMARK  200  A    between atoms: _474  and  _476
REMARK  201  A    between atoms: _476  and  _477
REMARK  202  A    between atoms: _476  and  _479
REMARK  203  A    between atoms: _479  and  _480
REMARK  204  A    between atoms: _483  and  _485
REMARK  205  A    between atoms: _485  and  _486
REMARK  206  A    between atoms: _485  and  _488
REMARK  207  A    between atoms: _488  and  _489
REMARK  208  A    between atoms: _489  and  _490
REMARK  209  A    between atoms: _492  and  _494
REMARK  210  A    between atoms: _494  and  _495
REMARK  211  A    between atoms: _494  and  _497
REMARK  212  A    between atoms: _497  and  _498
REMARK  213  A    between atoms: _504  and  _506
REMARK  214  A    between atoms: _506  and  _507
REMARK  215  A    between atoms: _506  and  _509
REMARK  216  A    between atoms: _509  and  _510
REMARK  217  A    between atoms: _510  and  _511
REMARK  218  A    between atoms: _514  and  _516
REMARK  219  A    between atoms: _516  and  _517
REMARK  220  A    between atoms: _516  and  _519
REMARK  221  A    between atoms: _519  and  _520
REMARK  222  A    between atoms: _523  and  _525
REMARK  223  A    between atoms: _525  and  _526
REMARK  224  A    between atoms: _525  and  _528
REMARK  225  A    between atoms: _528  and  _529
REMARK  226  A    between atoms: _532  and  _534
REMARK  227  A    between atoms: _534  and  _535
REMARK  228  A    between atoms: _534  and  _537
REMARK  229  A    between atoms: _537  and  _538
REMARK  230  A    between atoms: _544  and  _546
REMARK  231  A    between atoms: _546  and  _547
REMARK  232  A    between atoms: _546  and  _549
REMARK  233  A    between atoms: _552  and  _554
REMARK  234  A    between atoms: _554  and  _555
REMARK  235  A    between atoms: _559  and  _560
REMARK  236  A    between atoms: _565  and  _567
REMARK  237  A    between atoms: _567  and  _568
REMARK  238  A    between atoms: _567  and  _570
REMARK  239  A    between atoms: _570  and  _571
REMARK  240  A    between atoms: _574  and  _576
REMARK  241  A    between atoms: _576  and  _577
REMARK  242  A    between atoms: _576  and  _579
REMARK  243  A    between atoms: _579  and  _580
REMARK  244  A    between atoms: _587  and  _588
REMARK  245  A    between atoms: _593  and  _595
REMARK  246  A    between atoms: _595  and  _596
REMARK  247  A    between atoms: _595  and  _598
REMARK  248  A    between atoms: _601  and  _603
REMARK  249  A    between atoms: _603  and  _604
REMARK  250  A    between atoms: _607  and  _609
REMARK  251  A    between atoms: _609  and  _610
REMARK  252  A    between atoms: _609  and  _612
REMARK  253  A    between atoms: _612  and  _613
REMARK  254  A    between atoms: _618  and  _619
REMARK  255  A    between atoms: _621  and  _623
REMARK  256  A    between atoms: _623  and  _624
REMARK  257  A    between atoms: _623  and  _626
REMARK  258  A    between atoms: _626  and  _627
REMARK  259  A    between atoms: _632  and  _634
REMARK  260  A    between atoms: _634  and  _635
REMARK  261  A    between atoms: _634  and  _637
REMARK  262  A    between atoms: _637  and  _638
REMARK  263  A    between atoms: _641  and  _643
REMARK  264  A    between atoms: _643  and  _644
REMARK  265  A    between atoms: _643  and  _646
REMARK  266  A    between atoms: _646  and  _647
REMARK  267  A    between atoms: _650  and  _652
REMARK  268  A    between atoms: _652  and  _653
REMARK  269  A    between atoms: _652  and  _655
REMARK  270  A    between atoms: _655  and  _656
REMARK  271  A    between atoms: _656  and  _657
REMARK  272  A    between atoms: _657  and  _658
REMARK  273  A    between atoms: _658  and  _659
REMARK  274  A    between atoms: _663  and  _665
REMARK  275  A    between atoms: _665  and  _666
REMARK  276  A    between atoms: _665  and  _668
REMARK  277  A    between atoms: _668  and  _669
REMARK  278  A    between atoms: _675  and  _677
REMARK  279  A    between atoms: _677  and  _678
REMARK  280  A    between atoms: _677  and  _680
REMARK  281  A    between atoms: _680  and  _681
REMARK  282  A    between atoms: _684  and  _686
REMARK  283  A    between atoms: _686  and  _687
REMARK  284  A    between atoms: _686  and  _689
REMARK  285  A    between atoms: _689  and  _690
REMARK  286  A    between atoms: _692  and  _694
REMARK  287  A    between atoms: _694  and  _695
REMARK  288  A    between atoms: _694  and  _697
REMARK  289  A    between atoms: _697  and  _698
REMARK  290  A    between atoms: _701  and  _703
REMARK  291  A    between atoms: _703  and  _704
REMARK  292  A    between atoms: _703  and  _706
REMARK  293  A    between atoms: _706  and  _707
REMARK  294  A    between atoms: _707  and  _708
REMARK  295  A    between atoms: _708  and  _709
REMARK  296  A    between atoms: _718  and  _720
REMARK  297  A    between atoms: _720  and  _721
REMARK  298  A    between atoms: _720  and  _723
REMARK  299  A    between atoms: _723  and  _724
REMARK  300  A    between atoms: _724  and  _725
REMARK  301  A    between atoms: _725  and  _726
REMARK  302  A    between atoms: _726  and  _727
REMARK  303  A    between atoms: _731  and  _733
REMARK  304  A    between atoms: _733  and  _734
REMARK  305  A    between atoms: _733  and  _736
REMARK  306  A    between atoms: _736  and  _737
REMARK  307  A    between atoms: _740  and  _742
REMARK  308  A    between atoms: _742  and  _743
REMARK  309  A    between atoms: _742  and  _745
REMARK  310  A    between atoms: _745  and  _746
REMARK  311  A    between atoms: _746  and  _747
REMARK  312  A    between atoms: _749  and  _751
REMARK  313  A    between atoms: _751  and  _752
REMARK  314  A    between atoms: _751  and  _754
REMARK  315  A    between atoms: _757  and  _759
REMARK  316  A    between atoms: _759  and  _760
REMARK  317  A    between atoms: _759  and  _762
REMARK  318  A    between atoms: _762  and  _763
REMARK                            x       y       z     vdW  Elec       q    Type
REMARK                         _______ _______ _______ _____ _____    ______ ____
ROOT
ATOM      1  C   TYR A   1      22.250  -0.074   2.304  0.00  0.00    +0.239 C 
ATOM      2  O   TYR A   1      23.134  -0.458   3.090  0.00  0.00    -0.274 OA
ATOM      3  N   ASP A   2      22.498   0.692   1.249  0.00  0.00    -0.297 N 
ATOM      4  H   ASP A   2      21.697   1.054   0.693  0.00  0.00    +0.150 HD
ENDROOT
BRANCH   1   5
ATOM      5  CA  TYR A   1      20.782  -0.517   2.473  0.00  0.00    +0.149 C 
BRANCH   5   6
ATOM      6  N   TYR A   1      20.609  -1.841   1.906  0.00  0.00    -0.238 NA
ATOM      7  H   TYR A   1      21.072  -2.647   2.372  0.00  0.00    +0.142 HD
ENDBRANCH   5   6
BRANCH   5   8
ATOM      8  CB  TYR A   1      20.356  -0.572   3.922  0.00  0.00    +0.053 C 
BRANCH   8   9
ATOM      9  CG  TYR A   1      19.969   0.745   4.511  0.00  0.00    -0.020 A 
ATOM     10  CD2 TYR A   1      20.857   1.443   5.296  0.00  0.00    -0.001 A 
ATOM     11  CE2 TYR A   1      20.518   2.650   5.847  0.00  0.00    +0.036 A 
ATOM     12  CZ  TYR A   1      19.265   3.186   5.633  0.00  0.00    +0.134 A 
ATOM     13  CE1 TYR A   1      18.339   2.510   4.883  0.00  0.00    +0.036 A 
ATOM     14  CD1 TYR A   1      18.697   1.281   4.310  0.00  0.00    -0.001 A 
BRANCH  12  15
ATOM     15  OH  TYR A   1      18.954   4.400   6.212  0.00  0.00    -0.506 OA
ATOM     16  HH  TYR A   1      18.028   4.652   5.970  0.00  0.00    +0.292 HD
ENDBRANCH  12  15
ENDBRANCH   8   9
ENDBRANCH   5   8
ENDBRANCH   1   5
BRANCH   3  17
ATOM     17  CA  ASP A   2      23.857   1.046   0.840  0.00  0.00    +0.160 C 
BRANCH  17  18
ATOM     18  C   ASP A   2      24.324   2.299   1.568  0.00  0.00    +0.241 C 
ATOM     19  N   CYS A   3      25.254   2.111   2.495  0.00  0.00    -0.297 N 
ATOM     20  H   CYS A   3      25.654   1.160   2.624  0.00  0.00    +0.150 HD
ATOM     21  O   ASP A   2      23.864   3.406   1.265  0.00  0.00    -0.273 OA
BRANCH  19  22
ATOM     22  CA  CYS A   3      25.730   3.197   3.336  0.00  0.00    +0.149 C 
BRANCH  22  23
ATOM     23  CB  CYS A   3      25.746   2.771   4.813  0.00  0.00    +0.096 C 
ATOM     24  SG  CYS A   3      24.113   2.855   5.525  0.00  0.00    -0.080 S 
ENDBRANCH  22  23
BRANCH  22  25
ATOM     25  C   CYS A   3      27.101   3.694   2.913  0.00  0.00    +0.228 C 
ATOM     26  O   CYS A   3      27.728   4.472   3.629  0.00  0.00    -0.286 OA
ENDBRANCH  22  25
ENDBRANCH  19  22
ENDBRANCH  17  18
BRANCH  17  27
ATOM     27  CB  ASP A   2      23.914   1.263  -0.657  0.00  0.00    +0.143 C 
BRANCH  27  28
ATOM     28  CG  ASP A   2      25.312   1.582  -1.161  0.00  0.00    +0.367 C 
ATOM     29  OD2 ASP A   2      26.202   1.836  -0.326  0.00  0.00    -0.246 OA
ATOM     30  OD1 ASP A   2      25.520   1.545  -2.407  0.00  0.00    -0.246 OA
ENDBRANCH  27  28
ENDBRANCH  17  27
ENDBRANCH   3  17
TORSDOF 12
REMARK  Name = ../refined-set-2016/4omk/4omk_pocket.pdb
REMARK  318 active torsions:
REMARK  status: ('A' for Active; 'I' for Inactive)
REMARK    1  A    between atoms: _1  and  _3
REMARK    2  A    between atoms: _3  and  _4
REMARK    3  A    between atoms: _3  and  _6
REMARK    4  A    between atoms: _6  and  _7
REMARK    5  A    between atoms: _10  and  _12
REMARK    6  A    between atoms: _12  and  _13
REMARK    7  A    between atoms: _12  and  _15
REMARK    8  A    between atoms: _15  and  _16
REMARK    9  A    between atoms: _21  and  _22
REMARK   10  A    between atoms: _24  and  _26
REMARK   11  A    between atoms: _26  and  _27
REMARK   12  A    between atoms: _26  and  _29
REMARK   13  A    between atoms: _29  and  _30
REMARK   14  A    between atoms: _33  and  _35
REMARK   15  A    between atoms: _35  and  _36
REMARK   16  A    between atoms: _35  and  _38
REMARK   17  A    between atoms: _38  and  _39
REMARK   18  A    between atoms: _41  and  _43
REMARK   19  A    between atoms: _43  and  _44
REMARK   20  A    between atoms: _43  and  _46
REMARK   21  A    between atoms: _46  and  _47
REMARK   22  A    between atoms: _57  and  _59
REMARK   23  A    between atoms: _59  and  _60
REMARK   24  A    between atoms: _59  and  _62
REMARK   25  A    between atoms: _62  and  _63
REMARK   26  A    between atoms: _66  and  _68
REMARK   27  A    between atoms: _68  and  _69
REMARK   28  A    between atoms: _68  and  _71
REMARK   29  A    between atoms: _71  and  _72
REMARK   30  A    between atoms: _75  and  _77
REMARK   31  A    between atoms: _77  and  _78
REMARK   32  A    between atoms: _77  and  _80
REMARK   33  A    between atoms: _80  and  _81
REMARK   34  A    between atoms: _84  and  _86
REMARK   35  A    between atoms: _86  and  _87
REMARK   36  A    between atoms: _86  and  _89
REMARK   37  A    between atoms: _89  and  _90
REMARK   38  A    between atoms: _93  and  _95
REMARK   39  A    between atoms: _95  and  _96
REMARK   40  A    between atoms: _99  and  _101
REMARK   41  A    between atoms: _101  and  _102
REMARK   42  A    between atoms: _101  and  _104
REMARK   43  A    between atoms: _104  and  _105
REMARK   44  A    between atoms: _105  and  _106
REMARK   45  A    between atoms: _106  and  _107
REMARK   46  A    between atoms: _107  and  _108
REMARK   47  A    between atoms: _112  and  _114
REMARK   48  A    between atoms: _114  and  _115
REMARK   49  A    between atoms: _117  and  _119
REMARK   50  A    between atoms: _119  and  _120
REMARK   51  A    between atoms: _119  and  _122
REMARK   52  A    between atoms: _122  and  _123
REMARK   53  A    between atoms: _126  and  _128
REMARK   54  A    between atoms: _128  and  _129
REMARK   55  A    between atoms: _128  and  _131
REMARK   56  A    between atoms: _131  and  _132
REMARK   57  A    between atoms: _135  and  _137
REMARK   58  A    between atoms: _137  and  _138
REMARK   59  A    between atoms: _137  and  _140
REMARK   60  A    between atoms: _140  and  _141
REMARK   61  A    between atoms: _147  and  _149
REMARK   62  A    between atoms: _149  and  _150
REMARK   63  A    between atoms: _149  and  _152
REMARK   64  A    between atoms: _152  and  _153
REMARK   65  A    between atoms: _155  and  _157
REMARK   66  A    between atoms: _157  and  _158
REMARK   67  A    between atoms: _157  and  _160
REMARK   68  A    between atoms: _160  and  _161
REMARK   69  A    between atoms: _161  and  _162
REMARK   70  A    between atoms: _162  and  _163
REMARK   71  A    between atoms: _163  and  _164
REMARK   72  A    between atoms: _168  and  _170
REMARK   73  A    between atoms: _170  and  _171
REMARK   74  A    between atoms: _170  and  _173
REMARK   75  A    between atoms: _173  and  _174
REMARK   76  A    between atoms: _174  and  _175
REMARK   77  A    between atoms: _180  and  _182
REMARK   78  A    between atoms: _182  and  _183
REMARK   79  A    between atoms: _182  and  _185
REMARK   80  A    between atoms: _185  and  _186
REMARK   81  A    between atoms: _189  and  _191
REMARK   82  A    between atoms: _191  and  _192
REMARK   83  A    between atoms: _191  and  _194
REMARK   84  A    between atoms: _194  and  _195
REMARK   85  A    between atoms: _198  and  _200
REMARK   86  A    between atoms: _200  and  _201
REMARK   87  A    between atoms: _200  and  _203
REMARK   88  A    between atoms: _203  and  _204
REMARK   89  A    between atoms: _207  and  _209
REMARK   90  A    between atoms: _209  and  _210
REMARK   91  A    between atoms: _209  and  _212
REMARK   92  A    between atoms: _212  and  _213
REMARK   93  A    between atoms: _213  and  _214
REMARK   94  A    between atoms: _214  and  _215
REMARK   95  A    between atoms: _224  and  _226
REMARK   96  A    between atoms: _226  and  _227
REMARK   97  A    between atoms: _226  and  _229
REMARK   98  A    between atoms: _229  and  _230
REMARK   99  A    between atoms: _233  and  _235
REMARK  100  A    between atoms: _235  and  _236
REMARK  101  A    between atoms: _235  and  _238
REMARK  102  A    between atoms: _238  and  _239
REMARK  103  A    between atoms: _239  and  _240
REMARK  104  A    between atoms: _240  and  _241
REMARK  105  A    between atoms: _241  and  _242
REMARK  106  A    between atoms: _246  and  _248
REMARK  107  A    between atoms: _248  and  _249
REMARK  108  A    between atoms: _248  and  _251
REMARK  109  A    between atoms: _251  and  _252
REMARK  110  A    between atoms: _252  and  _253
REMARK  111  A    between atoms: _255  and  _257
REMARK  112  A    between atoms: _257  and  _258
REMARK  113  A    between atoms: _257  and  _260
REMARK  114  A    between atoms: _260  and  _261
REMARK  115  A    between atoms: _261  and  _262
REMARK  116  A    between atoms: _265  and  _267
REMARK  117  A    between atoms: _267  and  _268
REMARK  118  A    between atoms: _267  and  _270
REMARK  119  A    between atoms: _272  and  _274
REMARK  120  A    between atoms: _274  and  _275
REMARK  121  A    between atoms: _274  and  _277
REMARK  122  A    between atoms: _277  and  _278
REMARK  123  A    between atoms: _281  and  _283
REMARK  124  A    between atoms: _283  and  _284
REMARK  125  A    between atoms: _283  and  _286
REMARK  126  A    between atoms: _286  and  _287
REMARK  127  A    between atoms: _290  and  _292
REMARK  128  A    between atoms: _292  and  _293
REMARK  129  A    between atoms: _292  and  _295
REMARK  130  A    between atoms: _295  and  _296
REMARK  131  A    between atoms: _301  and  _302
REMARK  132  A    between atoms: _304  and  _306
REMARK  133  A    between atoms: _306  and  _307
REMARK  134  A    between atoms: _306  and  _309
REMARK  135  A    between atoms: _309  and  _310
REMARK  136  A    between atoms: _313  and  _315
REMARK  137  A    between atoms: _315  and  _316
REMARK  138  A    between atoms: _315  and  _318
REMARK  139  A    between atoms: _320  and  _322
REMARK  140  A    between atoms: _322  and  _323
REMARK  141  A    between atoms: _322  and  _325
REMARK  142  A    between atoms: _325  and  _326
REMARK  143  A    between atoms: _329  and  _331
REMARK  144  A    between atoms: _331  and  _332
REMARK  145  A    between atoms: _334  and  _336
REMARK  146  A    between atoms: _336  and  _337
REMARK  147  A    between atoms: _336  and  _339
REMARK  148  A    between atoms: _339  and  _340
REMARK  149  A    between atoms: _340  and  _341
REMARK  150  A    between atoms: _341  and  _342
REMARK  151  A    between atoms: _342  and  _343
REMARK  152  A    between atoms: _347  and  _349
REMARK  153  A    between atoms: _349  and  _350
REMARK  154  A    between atoms: _349  and  _352
REMARK  155  A    between atoms: _352  and  _353
REMARK  156  A    between atoms: _358  and  _360
REMARK  157  A    between atoms: _360  and  _361
REMARK  158  A    between atoms: _360  and  _363
REMARK  159  A    between atoms: _363  and  _364
REMARK  160  A    between atoms: _367  and  _369
REMARK  161  A    between atoms: _369  and  _370
REMARK  162  A    between atoms: _369  and  _372
REMARK  163  A    between atoms: _372  and  _373
REMARK  164  A    between atoms: _383  and  _385
REMARK  165  A    between atoms: _385  and  _386
REMARK  166  A    between atoms: _385  and  _388
REMARK  167  A    between atoms: _388  and  _389
REMARK  168  A    between atoms: _389  and  _390
REMARK  169  A    between atoms: _390  and  _391
REMARK  170  A    between atoms: _391  and  _392
REMARK  171  A    between atoms: _397  and  _398
REMARK  172  A    between atoms: _403  and  _405
REMARK  173  A    between atoms: _405  and  _406
REMARK  174  A    between atoms: _409  and  _411
REMARK  175  A    between atoms: _411  and  _412
REMARK  176  A    between atoms: _411  and  _414
REMARK  177  A    between atoms: _417  and  _419
REMARK  178  A    between atoms: _419  and  _420
REMARK  179  A    between atoms: _419  and  _422
REMARK  180  A    between atoms: _422  and  _423
REMARK  181  A    between atoms: _423  and  _424
REMARK  182  A    between atoms: _427  and  _429
REMARK  183  A    between atoms: _429  and  _430
REMARK  184  A    between atoms: _433  and  _435
REMARK  185  A    between atoms: _435  and  _436
REMARK  186  A    between atoms: _435  and  _438
REMARK  187  A    between atoms: _438  and  _439
REMARK  188  A    between atoms: _444  and  _445
REMARK  189  A    between atoms: _447  and  _449
REMARK  190  A    between atoms: _449  and  _450
REMARK  191  A    between atoms: _452  and  _454
REMARK  192  A    between atoms: _454  and  _455
REMARK  193  A    between atoms: _454  and  _457
REMARK  194  A    between atoms: _457  and  _458
REMARK  195  A    between atoms: _458  and  _459
REMARK  196  A    between atoms: _462  and  _464
REMARK  197  A    between atoms: _464  and  _465
REMARK  198  A    between atoms: _464  and  _467
REMARK  199  A    between atoms: _467  and  _468
REMARK  200  A    between atoms: _474  and  _476
REMARK  201  A    between atoms: _476  and  _477
REMARK  202  A    between atoms: _476  and  _479
REMARK  203  A    between atoms: _479  and  _480
REMARK  204  A    between atoms: _483  and  _485
REMARK  205  A    between atoms: _485  and  _486
REMARK  206  A    between atoms: _485  and  _488
REMARK  207  A    between atoms: _488  and  _489
REMARK  208  A    between atoms: _489  and  _490
REMARK  209  A    between atoms: _492  and  _494
REMARK  210  A    between atoms: _494  and  _495
REMARK  211  A    between atoms: _494  and  _497
REMARK  212  A    between atoms: _497  and  _498
REMARK  213  A    between atoms: _504  and  _506
REMARK  214  A    between atoms: _506  and  _507
REMARK  215  A    between atoms: _506  and  _509
REMARK  216  A    between atoms: _509  and  _510
REMARK  217  A    between atoms: _510  and  _511
REMARK  218  A    between atoms: _514  and  _516
REMARK  219  A    between atoms: _516  and  _517
REMARK  220  A    between atoms: _516  and  _519
REMARK  221  A    between atoms: _519  and  _520
REMARK  222  A    between atoms: _523  and  _525
REMARK  223  A    between atoms: _525  and  _526
REMARK  224  A    between atoms: _525  and  _528
REMARK  225  A    between atoms: _528  and  _529
REMARK  226  A    between atoms: _532  and  _534
REMARK  227  A    between atoms: _534  and  _535
REMARK  228  A    between atoms: _534  and  _537
REMARK  229  A    between atoms: _537  and  _538
REMARK  230  A    between atoms: _544  and  _546
REMARK  231  A    between atoms: _546  and  _547
REMARK  232  A    between atoms: _546  and  _549
REMARK  233  A    between atoms: _552  and  _554
REMARK  234  A    between atoms: _554  and  _555
REMARK  235  A    between atoms: _559  and  _560
REMARK  236  A    between atoms: _565  and  _567
REMARK  237  A    between atoms: _567  and  _568
REMARK  238  A    between atoms: _567  and  _570
REMARK  239  A    between atoms: _570  and  _571
REMARK  240  A    between atoms: _574  and  _576
REMARK  241  A    between atoms: _576  and  _577
REMARK  242  A    between atoms: _576  and  _579
REMARK  243  A    between atoms: _579  and  _580
REMARK  244  A    between atoms: _587  and  _588
REMARK  245  A    between atoms: _593  and  _595
REMARK  246  A    between atoms: _595  and  _596
REMARK  247  A    between atoms: _595  and  _598
REMARK  248  A    between atoms: _601  and  _603
REMARK  249  A    between atoms: _603  and  _604
REMARK  250  A    between atoms: _607  and  _609
REMARK  251  A    between atoms: _609  and  _610
REMARK  252  A    between atoms: _609  and  _612
REMARK  253  A    between atoms: _612  and  _613
REMARK  254  A    between atoms: _618  and  _619
REMARK  255  A    between atoms: _621  and  _623
REMARK  256  A    between atoms: _623  and  _624
REMARK  257  A    between atoms: _623  and  _626
REMARK  258  A    between atoms: _626  and  _627
REMARK  259  A    between atoms: _632  and  _634
REMARK  260  A    between atoms: _634  and  _635
REMARK  261  A    between atoms: _634  and  _637
REMARK  262  A    between atoms: _637  and  _638
REMARK  263  A    between atoms: _641  and  _643
REMARK  264  A    between atoms: _643  and  _644
REMARK  265  A    between atoms: _643  and  _646
REMARK  266  A    between atoms: _646  and  _647
REMARK  267  A    between atoms: _650  and  _652
REMARK  268  A    between atoms: _652  and  _653
REMARK  269  A    between atoms: _652  and  _655
REMARK  270  A    between atoms: _655  and  _656
REMARK  271  A    between atoms: _656  and  _657
REMARK  272  A    between atoms: _657  and  _658
REMARK  273  A    between atoms: _658  and  _659
REMARK  274  A    between atoms: _663  and  _665
REMARK  275  A    between atoms: _665  and  _666
REMARK  276  A    between atoms: _665  and  _668
REMARK  277  A    between atoms: _668  and  _669
REMARK  278  A    between atoms: _675  and  _677
REMARK  279  A    between atoms: _677  and  _678
REMARK  280  A    between atoms: _677  and  _680
REMARK  281  A    between atoms: _680  and  _681
REMARK  282  A    between atoms: _684  and  _686
REMARK  283  A    between atoms: _686  and  _687
REMARK  284  A    between atoms: _686  and  _689
REMARK  285  A    between atoms: _689  and  _690
REMARK  286  A    between atoms: _692  and  _694
REMARK  287  A    between atoms: _694  and  _695
REMARK  288  A    between atoms: _694  and  _697
REMARK  289  A    between atoms: _697  and  _698
REMARK  290  A    between atoms: _701  and  _703
REMARK  291  A    between atoms: _703  and  _704
REMARK  292  A    between atoms: _703  and  _706
REMARK  293  A    between atoms: _706  and  _707
REMARK  294  A    between atoms: _707  and  _708
REMARK  295  A    between atoms: _708  and  _709
REMARK  296  A    between atoms: _718  and  _720
REMARK  297  A    between atoms: _720  and  _721
REMARK  298  A    between atoms: _720  and  _723
REMARK  299  A    between atoms: _723  and  _724
REMARK  300  A    between atoms: _724  and  _725
REMARK  301  A    between atoms: _725  and  _726
REMARK  302  A    between atoms: _726  and  _727
REMARK  303  A    between atoms: _731  and  _733
REMARK  304  A    between atoms: _733  and  _734
REMARK  305  A    between atoms: _733  and  _736
REMARK  306  A    between atoms: _736  and  _737
REMARK  307  A    between atoms: _740  and  _742
REMARK  308  A    between atoms: _742  and  _743
REMARK  309  A    between atoms: _742  and  _745
REMARK  310  A    between atoms: _745  and  _746
REMARK  311  A    between atoms: _746  and  _747
REMARK  312  A    between atoms: _749  and  _751
REMARK  313  A    between atoms: _751  and  _752
REMARK  314  A    between atoms: _751  and  _754
REMARK  315  A    between atoms: _757  and  _759
REMARK  316  A    between atoms: _759  and  _760
REMARK  317  A    between atoms: _759  and  _762
REMARK  318  A    between atoms: _762  and  _763
REMARK                            x       y       z     vdW  Elec       q    Type
REMARK                         _______ _______ _______ _____ _____    ______ ____
ROOT
ATOM      1  CA  LEU A   1      27.324   7.988   4.769  0.00  0.00    +0.145 C 
ENDROOT
BRANCH   1   2
ATOM      2  C   LEU A   1      28.309   8.908   5.493  0.00  0.00    +0.238 C 
ATOM      3  N   GLY A   2      27.857  10.101   5.843  0.00  0.00    -0.297 N 
ATOM      4  H   GLY A   2      26.842  10.310   5.759  0.00  0.00    +0.150 HD
ATOM      5  O   LEU A   1      29.444   8.535   5.737  0.00  0.00    -0.274 OA
BRANCH   3   6
ATOM      6  CA  GLY A   2      28.761  11.124   6.344  0.00  0.00    +0.163 C 
BRANCH   6   7
ATOM      7  C   GLY A   2      28.041  12.029   7.329  0.00  0.00    +0.229 C 
ATOM      8  O   GLY A   2      26.838  11.911   7.563  0.00  0.00    -0.286 OA
ENDBRANCH   6   7
ENDBRANCH   3   6
ENDBRANCH   1   2
BRANCH   1   9
ATOM      9  N   LEU A   1      27.974   7.472   3.565  0.00  0.00    -0.238 NA
ATOM     10  H   LEU A   1      28.012   6.445   3.406  0.00  0.00    +0.142 HD
ENDBRANCH   1   9
BRANCH   1  11
ATOM     11  CB  LEU A   1      26.878   6.861   5.670  0.00  0.00    +0.026 C 
BRANCH  11  12
ATOM     12  CG  LEU A   1      26.439   7.303   7.071  0.00  0.00    +0.002 C 
ATOM     13  CD2 LEU A   1      26.298   6.088   7.954  0.00  0.00    +0.000 C 
ATOM     14  CD1 LEU A   1      25.140   8.108   7.004  0.00  0.00    +0.000 C 
ENDBRANCH  11  12
ENDBRANCH   1  11
TORSDOF 6
REMARK  Name = ../refined-set-2016/4omk/4omk_pocket.pdb
REMARK  318 active torsions:
REMARK  status: ('A' for Active; 'I' for Inactive)
REMARK    1  A    between atoms: _1  and  _3
REMARK    2  A    between atoms: _3  and  _4
REMARK    3  A    between atoms: _3  and  _6
REMARK    4  A    between atoms: _6  and  _7
REMARK    5  A    between atoms: _10  and  _12
REMARK    6  A    between atoms: _12  and  _13
REMARK    7  A    between atoms: _12  and  _15
REMARK    8  A    between atoms: _15  and  _16
REMARK    9  A    between atoms: _21  and  _22
REMARK   10  A    between atoms: _24  and  _26
REMARK   11  A    between atoms: _26  and  _27
REMARK   12  A    between atoms: _26  and  _29
REMARK   13  A    between atoms: _29  and  _30
REMARK   14  A    between atoms: _33  and  _35
REMARK   15  A    between atoms: _35  and  _36
REMARK   16  A    between atoms: _35  and  _38
REMARK   17  A    between atoms: _38  and  _39
REMARK   18  A    between atoms: _41  and  _43
REMARK   19  A    between atoms: _43  and  _44
REMARK   20  A    between atoms: _43  and  _46
REMARK   21  A    between atoms: _46  and  _47
REMARK   22  A    between atoms: _57  and  _59
REMARK   23  A    between atoms: _59  and  _60
REMARK   24  A    between atoms: _59  and  _62
REMARK   25  A    between atoms: _62  and  _63
REMARK   26  A    between atoms: _66  and  _68
REMARK   27  A    between atoms: _68  and  _69
REMARK   28  A    between atoms: _68  and  _71
REMARK   29  A    between atoms: _71  and  _72
REMARK   30  A    between atoms: _75  and  _77
REMARK   31  A    between atoms: _77  and  _78
REMARK   32  A    between atoms: _77  and  _80
REMARK   33  A    between atoms: _80  and  _81
REMARK   34  A    between atoms: _84  and  _86
REMARK   35  A    between atoms: _86  and  _87
REMARK   36  A    between atoms: _86  and  _89
REMARK   37  A    between atoms: _89  and  _90
REMARK   38  A    between atoms: _93  and  _95
REMARK   39  A    between atoms: _95  and  _96
REMARK   40  A    between atoms: _99  and  _101
REMARK   41  A    between atoms: _101  and  _102
REMARK   42  A    between atoms: _101  and  _104
REMARK   43  A    between atoms: _104  and  _105
REMARK   44  A    between atoms: _105  and  _106
REMARK   45  A    between atoms: _106  and  _107
REMARK   46  A    between atoms: _107  and  _108
REMARK   47  A    between atoms: _112  and  _114
REMARK   48  A    between atoms: _114  and  _115
REMARK   49  A    between atoms: _117  and  _119
REMARK   50  A    between atoms: _119  and  _120
REMARK   51  A    between atoms: _119  and  _122
REMARK   52  A    between atoms: _122  and  _123
REMARK   53  A    between atoms: _126  and  _128
REMARK   54  A    between atoms: _128  and  _129
REMARK   55  A    between atoms: _128  and  _131
REMARK   56  A    between atoms: _131  and  _132
REMARK   57  A    between atoms: _135  and  _137
REMARK   58  A    between atoms: _137  and  _138
REMARK   59  A    between atoms: _137  and  _140
REMARK   60  A    between atoms: _140  and  _141
REMARK   61  A    between atoms: _147  and  _149
REMARK   62  A    between atoms: _149  and  _150
REMARK   63  A    between atoms: _149  and  _152
REMARK   64  A    between atoms: _152  and  _153
REMARK   65  A    between atoms: _155  and  _157
REMARK   66  A    between atoms: _157  and  _158
REMARK   67  A    between atoms: _157  and  _160
REMARK   68  A    between atoms: _160  and  _161
REMARK   69  A    between atoms: _161  and  _162
REMARK   70  A    between atoms: _162  and  _163
REMARK   71  A    between atoms: _163  and  _164
REMARK   72  A    between atoms: _168  and  _170
REMARK   73  A    between atoms: _170  and  _171
REMARK   74  A    between atoms: _170  and  _173
REMARK   75  A    between atoms: _173  and  _174
REMARK   76  A    between atoms: _174  and  _175
REMARK   77  A    between atoms: _180  and  _182
REMARK   78  A    between atoms: _182  and  _183
REMARK   79  A    between atoms: _182  and  _185
REMARK   80  A    between atoms: _185  and  _186
REMARK   81  A    between atoms: _189  and  _191
REMARK   82  A    between atoms: _191  and  _192
REMARK   83  A    between atoms: _191  and  _194
REMARK   84  A    between atoms: _194  and  _195
REMARK   85  A    between atoms: _198  and  _200
REMARK   86  A    between atoms: _200  and  _201
REMARK   87  A    between atoms: _200  and  _203
REMARK   88  A    between atoms: _203  and  _204
REMARK   89  A    between atoms: _207  and  _209
REMARK   90  A    between atoms: _209  and  _210
REMARK   91  A    between atoms: _209  and  _212
REMARK   92  A    between atoms: _212  and  _213
REMARK   93  A    between atoms: _213  and  _214
REMARK   94  A    between atoms: _214  and  _215
REMARK   95  A    between atoms: _224  and  _226
REMARK   96  A    between atoms: _226  and  _227
REMARK   97  A    between atoms: _226  and  _229
REMARK   98  A    between atoms: _229  and  _230
REMARK   99  A    between atoms: _233  and  _235
REMARK  100  A    between atoms: _235  and  _236
REMARK  101  A    between atoms: _235  and  _238
REMARK  102  A    between atoms: _238  and  _239
REMARK  103  A    between atoms: _239  and  _240
REMARK  104  A    between atoms: _240  and  _241
REMARK  105  A    between atoms: _241  and  _242
REMARK  106  A    between atoms: _246  and  _248
REMARK  107  A    between atoms: _248  and  _249
REMARK  108  A    between atoms: _248  and  _251
REMARK  109  A    between atoms: _251  and  _252
REMARK  110  A    between atoms: _252  and  _253
REMARK  111  A    between atoms: _255  and  _257
REMARK  112  A    between atoms: _257  and  _258
REMARK  113  A    between atoms: _257  and  _260
REMARK  114  A    between atoms: _260  and  _261
REMARK  115  A    between atoms: _261  and  _262
REMARK  116  A    between atoms: _265  and  _267
REMARK  117  A    between atoms: _267  and  _268
REMARK  118  A    between atoms: _267  and  _270
REMARK  119  A    between atoms: _272  and  _274
REMARK  120  A    between atoms: _274  and  _275
REMARK  121  A    between atoms: _274  and  _277
REMARK  122  A    between atoms: _277  and  _278
REMARK  123  A    between atoms: _281  and  _283
REMARK  124  A    between atoms: _283  and  _284
REMARK  125  A    between atoms: _283  and  _286
REMARK  126  A    between atoms: _286  and  _287
REMARK  127  A    between atoms: _290  and  _292
REMARK  128  A    between atoms: _292  and  _293
REMARK  129  A    between atoms: _292  and  _295
REMARK  130  A    between atoms: _295  and  _296
REMARK  131  A    between atoms: _301  and  _302
REMARK  132  A    between atoms: _304  and  _306
REMARK  133  A    between atoms: _306  and  _307
REMARK  134  A    between atoms: _306  and  _309
REMARK  135  A    between atoms: _309  and  _310
REMARK  136  A    between atoms: _313  and  _315
REMARK  137  A    between atoms: _315  and  _316
REMARK  138  A    between atoms: _315  and  _318
REMARK  139  A    between atoms: _320  and  _322
REMARK  140  A    between atoms: _322  and  _323
REMARK  141  A    between atoms: _322  and  _325
REMARK  142  A    between atoms: _325  and  _326
REMARK  143  A    between atoms: _329  and  _331
REMARK  144  A    between atoms: _331  and  _332
REMARK  145  A    between atoms: _334  and  _336
REMARK  146  A    between atoms: _336  and  _337
REMARK  147  A    between atoms: _336  and  _339
REMARK  148  A    between atoms: _339  and  _340
REMARK  149  A    between atoms: _340  and  _341
REMARK  150  A    between atoms: _341  and  _342
REMARK  151  A    between atoms: _342  and  _343
REMARK  152  A    between atoms: _347  and  _349
REMARK  153  A    between atoms: _349  and  _350
REMARK  154  A    between atoms: _349  and  _352
REMARK  155  A    between atoms: _352  and  _353
REMARK  156  A    between atoms: _358  and  _360
REMARK  157  A    between atoms: _360  and  _361
REMARK  158  A    between atoms: _360  and  _363
REMARK  159  A    between atoms: _363  and  _364
REMARK  160  A    between atoms: _367  and  _369
REMARK  161  A    between atoms: _369  and  _370
REMARK  162  A    between atoms: _369  and  _372
REMARK  163  A    between atoms: _372  and  _373
REMARK  164  A    between atoms: _383  and  _385
REMARK  165  A    between atoms: _385  and  _386
REMARK  166  A    between atoms: _385  and  _388
REMARK  167  A    between atoms: _388  and  _389
REMARK  168  A    between atoms: _389  and  _390
REMARK  169  A    between atoms: _390  and  _391
REMARK  170  A    between atoms: _391  and  _392
REMARK  171  A    between atoms: _397  and  _398
REMARK  172  A    between atoms: _403  and  _405
REMARK  173  A    between atoms: _405  and  _406
REMARK  174  A    between atoms: _409  and  _411
REMARK  175  A    between atoms: _411  and  _412
REMARK  176  A    between atoms: _411  and  _414
REMARK  177  A    between atoms: _417  and  _419
REMARK  178  A    between atoms: _419  and  _420
REMARK  179  A    between atoms: _419  and  _422
REMARK  180  A    between atoms: _422  and  _423
REMARK  181  A    between atoms: _423  and  _424
REMARK  182  A    between atoms: _427  and  _429
REMARK  183  A    between atoms: _429  and  _430
REMARK  184  A    between atoms: _433  and  _435
REMARK  185  A    between atoms: _435  and  _436
REMARK  186  A    between atoms: _435  and  _438
REMARK  187  A    between atoms: _438  and  _439
REMARK  188  A    between atoms: _444  and  _445
REMARK  189  A    between atoms: _447  and  _449
REMARK  190  A    between atoms: _449  and  _450
REMARK  191  A    between atoms: _452  and  _454
REMARK  192  A    between atoms: _454  and  _455
REMARK  193  A    between atoms: _454  and  _457
REMARK  194  A    between atoms: _457  and  _458
REMARK  195  A    between atoms: _458  and  _459
REMARK  196  A    between atoms: _462  and  _464
REMARK  197  A    between atoms: _464  and  _465
REMARK  198  A    between atoms: _464  and  _467
REMARK  199  A    between atoms: _467  and  _468
REMARK  200  A    between atoms: _474  and  _476
REMARK  201  A    between atoms: _476  and  _477
REMARK  202  A    between atoms: _476  and  _479
REMARK  203  A    between atoms: _479  and  _480
REMARK  204  A    between atoms: _483  and  _485
REMARK  205  A    between atoms: _485  and  _486
REMARK  206  A    between atoms: _485  and  _488
REMARK  207  A    between atoms: _488  and  _489
REMARK  208  A    between atoms: _489  and  _490
REMARK  209  A    between atoms: _492  and  _494
REMARK  210  A    between atoms: _494  and  _495
REMARK  211  A    between atoms: _494  and  _497
REMARK  212  A    between atoms: _497  and  _498
REMARK  213  A    between atoms: _504  and  _506
REMARK  214  A    between atoms: _506  and  _507
REMARK  215  A    between atoms: _506  and  _509
REMARK  216  A    between atoms: _509  and  _510
REMARK  217  A    between atoms: _510  and  _511
REMARK  218  A    between atoms: _514  and  _516
REMARK  219  A    between atoms: _516  and  _517
REMARK  220  A    between atoms: _516  and  _519
REMARK  221  A    between atoms: _519  and  _520
REMARK  222  A    between atoms: _523  and  _525
REMARK  223  A    between atoms: _525  and  _526
REMARK  224  A    between atoms: _525  and  _528
REMARK  225  A    between atoms: _528  and  _529
REMARK  226  A    between atoms: _532  and  _534
REMARK  227  A    between atoms: _534  and  _535
REMARK  228  A    between atoms: _534  and  _537
REMARK  229  A    between atoms: _537  and  _538
REMARK  230  A    between atoms: _544  and  _546
REMARK  231  A    between atoms: _546  and  _547
REMARK  232  A    between atoms: _546  and  _549
REMARK  233  A    between atoms: _552  and  _554
REMARK  234  A    between atoms: _554  and  _555
REMARK  235  A    between atoms: _559  and  _560
REMARK  236  A    between atoms: _565  and  _567
REMARK  237  A    between atoms: _567  and  _568
REMARK  238  A    between atoms: _567  and  _570
REMARK  239  A    between atoms: _570  and  _571
REMARK  240  A    between atoms: _574  and  _576
REMARK  241  A    between atoms: _576  and  _577
REMARK  242  A    between atoms: _576  and  _579
REMARK  243  A    between atoms: _579  and  _580
REMARK  244  A    between atoms: _587  and  _588
REMARK  245  A    between atoms: _593  and  _595
REMARK  246  A    between atoms: _595  and  _596
REMARK  247  A    between atoms: _595  and  _598
REMARK  248  A    between atoms: _601  and  _603
REMARK  249  A    between atoms: _603  and  _604
REMARK  250  A    between atoms: _607  and  _609
REMARK  251  A    between atoms: _609  and  _610
REMARK  252  A    between atoms: _609  and  _612
REMARK  253  A    between atoms: _612  and  _613
REMARK  254  A    between atoms: _618  and  _619
REMARK  255  A    between atoms: _621  and  _623
REMARK  256  A    between atoms: _623  and  _624
REMARK  257  A    between atoms: _623  and  _626
REMARK  258  A    between atoms: _626  and  _627
REMARK  259  A    between atoms: _632  and  _634
REMARK  260  A    between atoms: _634  and  _635
REMARK  261  A    between atoms: _634  and  _637
REMARK  262  A    between atoms: _637  and  _638
REMARK  263  A    between atoms: _641  and  _643
REMARK  264  A    between atoms: _643  and  _644
REMARK  265  A    between atoms: _643  and  _646
REMARK  266  A    between atoms: _646  and  _647
REMARK  267  A    between atoms: _650  and  _652
REMARK  268  A    between atoms: _652  and  _653
REMARK  269  A    between atoms: _652  and  _655
REMARK  270  A    between atoms: _655  and  _656
REMARK  271  A    between atoms: _656  and  _657
REMARK  272  A    between atoms: _657  and  _658
REMARK  273  A    between atoms: _658  and  _659
REMARK  274  A    between atoms: _663  and  _665
REMARK  275  A    between atoms: _665  and  _666
REMARK  276  A    between atoms: _665  and  _668
REMARK  277  A    between atoms: _668  and  _669
REMARK  278  A    between atoms: _675  and  _677
REMARK  279  A    between atoms: _677  and  _678
REMARK  280  A    between atoms: _677  and  _680
REMARK  281  A    between atoms: _680  and  _681
REMARK  282  A    between atoms: _684  and  _686
REMARK  283  A    between atoms: _686  and  _687
REMARK  284  A    between atoms: _686  and  _689
REMARK  285  A    between atoms: _689  and  _690
REMARK  286  A    between atoms: _692  and  _694
REMARK  287  A    between atoms: _694  and  _695
REMARK  288  A    between atoms: _694  and  _697
REMARK  289  A    between atoms: _697  and  _698
REMARK  290  A    between atoms: _701  and  _703
REMARK  291  A    between atoms: _703  and  _704
REMARK  292  A    between atoms: _703  and  _706
REMARK  293  A    between atoms: _706  and  _707
REMARK  294  A    between atoms: _707  and  _708
REMARK  295  A    between atoms: _708  and  _709
REMARK  296  A    between atoms: _718  and  _720
REMARK  297  A    between atoms: _720  and  _721
REMARK  298  A    between atoms: _720  and  _723
REMARK  299  A    between atoms: _723  and  _724
REMARK  300  A    between atoms: _724  and  _725
REMARK  301  A    between atoms: _725  and  _726
REMARK  302  A    between atoms: _726  and  _727
REMARK  303  A    between atoms: _731  and  _733
REMARK  304  A    between atoms: _733  and  _734
REMARK  305  A    between atoms: _733  and  _736
REMARK  306  A    between atoms: _736  and  _737
REMARK  307  A    between atoms: _740  and  _742
REMARK  308  A    between atoms: _742  and  _743
REMARK  309  A    between atoms: _742  and  _745
REMARK  310  A    between atoms: _745  and  _746
REMARK  311  A    between atoms: _746  and  _747
REMARK  312  A    between atoms: _749  and  _751
REMARK  313  A    between atoms: _751  and  _752
REMARK  314  A    between atoms: _751  and  _754
REMARK  315  A    between atoms: _757  and  _759
REMARK  316  A    between atoms: _759  and  _760
REMARK  317  A    between atoms: _759  and  _762
REMARK  318  A    between atoms: _762  and  _763
REMARK                            x       y       z     vdW  Elec       q    Type
REMARK                         _______ _______ _______ _____ _____    ______ ____
ROOT
ATOM      1  C   ALA A   7      16.930  14.054   9.318  0.00  0.00    +0.241 C 
ATOM      2  N   VAL A   8      17.631  13.943  10.447  0.00  0.00    -0.297 N 
ATOM      3  H   VAL A   8      18.327  14.677  10.690  0.00  0.00    +0.150 HD
ATOM      4  O   ALA A   7      16.090  13.205   8.972  0.00  0.00    -0.273 OA
ENDROOT
BRANCH   1   5
ATOM      5  CA  ALA A   7      17.203  15.295   8.462  0.00  0.00    +0.149 C 
ATOM      6  CB  ALA A   7      18.523  15.142   7.687  0.00  0.00    +0.031 C 
BRANCH   5   9
ATOM      7  C   PRO A   6      16.154  16.963   9.921  0.00  0.00    +0.241 C 
ATOM      8  O   PRO A   6      15.026  16.437   9.829  0.00  0.00    -0.273 OA
ATOM      9  N   ALA A   7      17.237  16.515   9.290  0.00  0.00    -0.297 N 
ATOM     10  H   ALA A   7      18.131  17.039   9.383  0.00  0.00    +0.150 HD
BRANCH   7  17
ATOM     11  C   LYS A   5      18.005  17.263  12.285  0.00  0.00    +0.244 C 
ATOM     12  O   LYS A   5      17.226  16.349  12.522  0.00  0.00    -0.273 OA
ATOM     13  N   PRO A   6      17.694  18.252  11.436  0.00  0.00    -0.272 N 
ATOM     14  CD  PRO A   6      18.326  19.565  11.206  0.00  0.00    +0.094 C 
ATOM     15  CG  PRO A   6      17.187  20.410  10.730  0.00  0.00    +0.024 C 
ATOM     16  CB  PRO A   6      16.256  19.477  10.033  0.00  0.00    +0.031 C 
ATOM     17  CA  PRO A   6      16.348  18.190  10.842  0.00  0.00    +0.152 C 
BRANCH  11  18
ATOM     18  CA  LYS A   5      19.399  17.261  12.939  0.00  0.00    +0.149 C 
BRANCH  18  20
ATOM     19  C   TRP A   4      20.697  16.937  10.930  0.00  0.00    +0.241 C 
ATOM     20  N   LYS A   5      20.499  17.630  12.053  0.00  0.00    -0.297 N 
ATOM     21  H   LYS A   5      21.123  18.426  12.295  0.00  0.00    +0.150 HD
ATOM     22  O   TRP A   4      19.848  16.113  10.518  0.00  0.00    -0.273 OA
BRANCH  19  23
ATOM     23  CA  TRP A   4      22.040  17.141  10.214  0.00  0.00    +0.153 C 
BRANCH  23  26
ATOM     24  C   LEU A   3      22.796  14.923  10.952  0.00  0.00    +0.241 C 
ATOM     25  O   LEU A   3      22.610  15.160  12.140  0.00  0.00    -0.273 OA
ATOM     26  N   TRP A   4      22.660  15.836   9.998  0.00  0.00    -0.297 N 
ATOM     27  H   TRP A   4      23.014  15.610   9.046  0.00  0.00    +0.150 HD
BRANCH  24  28
ATOM     28  CA  LEU A   3      23.165  13.516  10.477  0.00  0.00    +0.149 C 
BRANCH  28  30
ATOM     29  C   HIS A   2      22.792  13.126   8.093  0.00  0.00    +0.241 C 
ATOM     30  N   LEU A   3      23.600  13.510   9.072  0.00  0.00    -0.297 N 
ATOM     31  H   LEU A   3      24.567  13.815   8.840  0.00  0.00    +0.150 HD
ATOM     32  O   HIS A   2      21.631  12.814   8.279  0.00  0.00    -0.273 OA
BRANCH  29  33
ATOM     33  CA  HIS A   2      23.383  13.078   6.697  0.00  0.00    +0.155 C 
BRANCH  33  35
ATOM     34  C   LYS A   1      24.691  15.115   6.504  0.00  0.00    +0.238 C 
ATOM     35  N   HIS A   2      24.662  13.788   6.581  0.00  0.00    -0.297 N 
ATOM     36  H   HIS A   2      25.552  13.250   6.559  0.00  0.00    +0.150 HD
ATOM     37  O   LYS A   1      23.670  15.808   6.517  0.00  0.00    -0.274 OA
BRANCH  34  38
ATOM     38  CA  LYS A   1      26.054  15.778   6.423  0.00  0.00    +0.145 C 
BRANCH  38  39
ATOM     39  N   LYS A   1      27.097  14.984   7.049  0.00  0.00    -0.238 NA
ATOM     40  H   LYS A   1      27.897  14.644   6.478  0.00  0.00    +0.142 HD
ENDBRANCH  38  39
BRANCH  38  41
ATOM     41  CB  LYS A   1      26.393  16.076   4.971  0.00  0.00    +0.026 C 
BRANCH  41  42
ATOM     42  CG  LYS A   1      26.501  14.876   4.072  0.00  0.00    -0.000 C 
BRANCH  42  43
ATOM     43  CD  LYS A   1      27.023  15.301   2.700  0.00  0.00    -0.024 C 
BRANCH  43  44
ATOM     44  CE  LYS A   1      27.225  14.136   1.779  0.00  0.00    -0.086 C 
BRANCH  44  45
ATOM     45  NZ  LYS A   1      27.801  14.636   0.479  0.00  0.00    +0.380 N 
ATOM     46  HZ1 LYS A   1      28.712  15.103   0.662  0.00  0.00    -0.089 HD
ATOM     47  HZ2 LYS A   1      27.142  15.316   0.048  0.00  0.00    -0.089 HD
ATOM     48  HZ3 LYS A   1      27.945  13.833  -0.167  0.00  0.00    -0.089 HD
ENDBRANCH  44  45
ENDBRANCH  43  44
ENDBRANCH  42  43
ENDBRANCH  41  42
ENDBRANCH  38  41
ENDBRANCH  34  38
ENDBRANCH  33  35
BRANCH  33  49
ATOM     49  CB  HIS A   2      23.544  11.618   6.269  0.00  0.00    +0.076 C 
BRANCH  49  50
ATOM     50  CG  HIS A   2      23.990  11.466   4.851  0.00  0.00    +0.082 A 
ATOM     51  ND1 HIS A   2      25.273  11.124   4.516  0.00  0.00    -0.227 NA
ATOM     52  CE1 HIS A   2      25.398  11.103   3.196  0.00  0.00    +0.199 A 
ATOM     53  NE2 HIS A   2      24.233  11.428   2.666  0.00  0.00    -0.221 NA
ATOM     54  CD2 HIS A   2      23.333  11.664   3.679  0.00  0.00    +0.115 A 
ENDBRANCH  49  50
ENDBRANCH  33  49
ENDBRANCH  29  33
ENDBRANCH  28  30
BRANCH  28  55
ATOM     55  CB  LEU A   3      24.246  12.898  11.354  0.00  0.00    +0.029 C 
BRANCH  55  56
ATOM     56  CG  LEU A   3      24.694  11.493  10.940  0.00  0.00    +0.002 C 
ATOM     57  CD2 LEU A   3      25.642  10.938  11.982  0.00  0.00    +0.000 C 
ATOM     58  CD1 LEU A   3      23.471  10.569  10.761  0.00  0.00    +0.000 C 
ENDBRANCH  55  56
ENDBRANCH  28  55
ENDBRANCH  24  28
ENDBRANCH  23  26
BRANCH  23  59
ATOM     59  CB  TRP A   4      21.900  17.853   8.864  0.00  0.00    +0.057 C 
BRANCH  59  60
ATOM     60  CG  TRP A   4      21.262  19.194   8.864  0.00  0.00    -0.002 A 
ATOM     61  CD1 TRP A   4      21.644  20.296   9.588  0.00  0.00    +0.068 A 
ATOM     62  NE1 TRP A   4      20.806  21.362   9.303  0.00  0.00    -0.352 N 
ATOM     63  HE1 TRP A   4      20.867  22.310   9.725  0.00  0.00    +0.166 HD
ATOM     64  CE2 TRP A   4      19.883  20.961   8.373  0.00  0.00    +0.056 A 
ATOM     65  CZ2 TRP A   4      18.846  21.668   7.785  0.00  0.00    +0.017 A 
ATOM     66  CH2 TRP A   4      18.067  21.005   6.885  0.00  0.00    +0.001 A 
ATOM     67  CZ3 TRP A   4      18.298  19.679   6.559  0.00  0.00    +0.000 A 
ATOM     68  CE3 TRP A   4      19.323  18.964   7.138  0.00  0.00    +0.001 A 
ATOM     69  CD2 TRP A   4      20.140  19.609   8.068  0.00  0.00    +0.013 A 
ENDBRANCH  59  60
ENDBRANCH  23  59
ENDBRANCH  19  23
ENDBRANCH  18  20
BRANCH  18  70
ATOM     70  CB  LYS A   5      19.359  18.174  14.162  0.00  0.00    +0.029 C 
BRANCH  70  71
ATOM     71  CG  LYS A   5      18.169  17.874  15.041  0.00  0.00    +0.000 C 
BRANCH  71  72
ATOM     72  CD  LYS A   5      18.441  18.133  16.521  0.00  0.00    -0.024 C 
BRANCH  72  73
ATOM     73  CE  LYS A   5      18.324  19.590  16.859  0.00  0.00    -0.086 C 
BRANCH  73  74
ATOM     74  NZ  LYS A   5      18.432  19.811  18.332  0.00  0.00    +0.380 N 
ATOM     75  HZ1 LYS A   5      17.670  19.295  18.816  0.00  0.00    -0.089 HD
ATOM     76  HZ2 LYS A   5      19.354  19.464  18.667  0.00  0.00    -0.089 HD
ATOM     77  HZ3 LYS A   5      18.348  20.827  18.536  0.00  0.00    -0.089 HD
ENDBRANCH  73  74
ENDBRANCH  72  73
ENDBRANCH  71  72
ENDBRANCH  70  71
ENDBRANCH  18  70
ENDBRANCH  11  18
ENDBRANCH   7  17
ENDBRANCH   5   9
ENDBRANCH   1   5
BRANCH   2  78
ATOM     78  CA  VAL A   8      17.438  12.803  11.355  0.00  0.00    +0.149 C 
BRANCH  78  79
ATOM     79  C   VAL A   8      16.029  12.804  11.890  0.00  0.00    +0.241 C 
ATOM     80  N   GLU A   9      15.516  13.976  12.245  0.00  0.00    -0.297 N 
ATOM     81  H   GLU A   9      16.081  14.843  12.138  0.00  0.00    +0.150 HD
ATOM     82  O   VAL A   8      15.377  11.762  11.955  0.00  0.00    -0.273 OA
BRANCH  80  83
ATOM     83  CA  GLU A   9      14.162  14.052  12.785  0.00  0.00    +0.149 C 
BRANCH  83  84
ATOM     84  C   GLU A   9      13.106  13.663  11.730  0.00  0.00    +0.241 C 
ATOM     85  O   GLU A   9      12.158  12.925  12.037  0.00  0.00    -0.273 OA
ATOM     86  N   ALA A  10      13.293  14.101  10.499  0.00  0.00    -0.297 N 
ATOM     87  H   ALA A  10      14.121  14.693  10.287  0.00  0.00    +0.150 HD
BRANCH  86  88
ATOM     88  CA  ALA A  10      12.357  13.768   9.432  0.00  0.00    +0.149 C 
ATOM     89  CB  ALA A  10      12.673  14.582   8.190  0.00  0.00    +0.031 C 
BRANCH  88  90
ATOM     90  C   ALA A  10      12.405  12.271   9.136  0.00  0.00    +0.241 C 
ATOM     91  N   TYR A  11      13.604  11.711   9.146  0.00  0.00    -0.297 N 
ATOM     92  H   TYR A  11      14.445  12.294   9.333  0.00  0.00    +0.150 HD
ATOM     93  O   ALA A  10      11.380  11.622   8.902  0.00  0.00    -0.273 OA
BRANCH  91  94
ATOM     94  CA  TYR A  11      13.754  10.286   8.898  0.00  0.00    +0.153 C 
BRANCH  94  95
ATOM     95  C   TYR A  11      13.134   9.474  10.021  0.00  0.00    +0.241 C 
ATOM     96  N   GLY A  12      13.261   9.950  11.259  0.00  0.00    -0.295 N 
ATOM     97  H   GLY A  12      13.830  10.803  11.434  0.00  0.00    +0.150 HD
ATOM     98  O   TYR A  11      12.500   8.445   9.792  0.00  0.00    -0.273 OA
BRANCH  96  99
ATOM     99  CA  GLY A  12      12.602   9.273  12.364  0.00  0.00    +0.176 C 
BRANCH  99 100
ATOM    100  C   GLY A  12      11.084   9.275  12.204  0.00  0.00    +0.243 C 
ATOM    101  O   GLY A  12      10.422   8.287  12.544  0.00  0.00    -0.273 OA
ATOM    102  N   GLU A  13      10.527  10.354  11.663  0.00  0.00    -0.297 N 
ATOM    103  H   GLU A  13      11.117  11.177  11.426  0.00  0.00    +0.150 HD
BRANCH 102 104
ATOM    104  CA  GLU A  13       9.094  10.389  11.400  0.00  0.00    +0.149 C 
BRANCH 104 105
ATOM    105  C   GLU A  13       8.704   9.336  10.352  0.00  0.00    +0.241 C 
ATOM    106  O   GLU A  13       7.684   8.660  10.503  0.00  0.00    -0.273 OA
ATOM    107  N   PHE A  14       9.512   9.185   9.313  0.00  0.00    -0.297 N 
ATOM    108  H   PHE A  14      10.306   9.842   9.176  0.00  0.00    +0.150 HD
BRANCH 107 109
ATOM    109  CA  PHE A  14       9.292   8.094   8.354  0.00  0.00    +0.153 C 
BRANCH 109 110
ATOM    110  C   PHE A  14       9.351   6.752   9.054  0.00  0.00    +0.241 C 
ATOM    111  N   LEU A  15      10.379   6.522   9.859  0.00  0.00    -0.298 N 
ATOM    112  H   LEU A  15      11.082   7.268  10.034  0.00  0.00    +0.150 HD
ATOM    113  O   PHE A  14       8.468   5.911   8.854  0.00  0.00    -0.273 OA
BRANCH 111 114
ATOM    114  CA  LEU A  15      10.520   5.215  10.500  0.00  0.00    +0.137 C 
BRANCH 114 115
ATOM    115  C   LEU A  15       9.327   4.915  11.408  0.00  0.00    +0.227 C 
ATOM    116  O   LEU A  15       8.804   3.781  11.413  0.00  0.00    -0.286 OA
ENDBRANCH 114 115
BRANCH 114 117
ATOM    117  CB  LEU A  15      11.829   5.131  11.271  0.00  0.00    +0.028 C 
BRANCH 117 118
ATOM    118  CG  LEU A  15      13.093   5.195  10.404  0.00  0.00    +0.002 C 
ATOM    119  CD2 LEU A  15      14.338   5.303  11.275  0.00  0.00    +0.000 C 
ATOM    120  CD1 LEU A  15      13.176   3.955   9.518  0.00  0.00    +0.000 C 
ENDBRANCH 117 118
ENDBRANCH 114 117
ENDBRANCH 111 114
ENDBRANCH 109 110
BRANCH 109 121
ATOM    121  CB  PHE A  14      10.299   8.105   7.219  0.00  0.00    +0.055 C 
BRANCH 121 122
ATOM    122  CG  PHE A  14      10.463   6.765   6.559  0.00  0.00    -0.020 A 
ATOM    123  CD2 PHE A  14      11.655   6.085   6.646  0.00  0.00    -0.004 A 
ATOM    124  CE2 PHE A  14      11.790   4.832   6.067  0.00  0.00    -0.000 A 
ATOM    125  CZ  PHE A  14      10.726   4.270   5.415  0.00  0.00    -0.000 A 
ATOM    126  CE1 PHE A  14       9.541   4.932   5.314  0.00  0.00    -0.000 A 
ATOM    127  CD1 PHE A  14       9.407   6.180   5.893  0.00  0.00    -0.004 A 
ENDBRANCH 121 122
ENDBRANCH 109 121
ENDBRANCH 107 109
ENDBRANCH 104 105
BRANCH 104 128
ATOM    128  CB  GLU A  13       8.639  11.781  10.941  0.00  0.00    +0.041 C 
BRANCH 128 129
ATOM    129  CG  GLU A  13       8.654  12.810  12.071  0.00  0.00    +0.116 C 
BRANCH 129 130
ATOM    130  CD  GLU A  13       8.065  14.152  11.659  0.00  0.00    +0.365 C 
ATOM    131  OE2 GLU A  13       8.592  15.201  12.101  0.00  0.00    -0.246 OA
ATOM    132  OE1 GLU A  13       7.080  14.150  10.908  0.00  0.00    -0.246 OA
ENDBRANCH 129 130
ENDBRANCH 128 129
ENDBRANCH 104 128
ENDBRANCH 102 104
ENDBRANCH  99 100
ENDBRANCH  96  99
ENDBRANCH  94  95
BRANCH  94 133
ATOM    133  CB  TYR A  11      15.219   9.936   8.749  0.00  0.00    +0.055 C 
BRANCH 133 134
ATOM    134  CG  TYR A  11      15.467   8.587   8.110  0.00  0.00    -0.020 A 
ATOM    135  CD2 TYR A  11      16.155   7.594   8.784  0.00  0.00    -0.001 A 
ATOM    136  CE2 TYR A  11      16.403   6.347   8.186  0.00  0.00    +0.036 A 
ATOM    137  CZ  TYR A  11      15.969   6.123   6.900  0.00  0.00    +0.134 A 
ATOM    138  CE1 TYR A  11      15.288   7.104   6.213  0.00  0.00    +0.036 A 
ATOM    139  CD1 TYR A  11      15.042   8.334   6.829  0.00  0.00    -0.001 A 
BRANCH 137 140
ATOM    140  OH  TYR A  11      16.220   4.908   6.292  0.00  0.00    -0.506 OA
ATOM    141  HH  TYR A  11      15.843   4.914   5.377  0.00  0.00    +0.292 HD
ENDBRANCH 137 140
ENDBRANCH 133 134
ENDBRANCH  94 133
ENDBRANCH  91  94
ENDBRANCH  88  90
ENDBRANCH  86  88
ENDBRANCH  83  84
BRANCH  83 142
ATOM    142  CB  GLU A   9      13.903  15.455  13.355  0.00  0.00    +0.041 C 
BRANCH 142 143
ATOM    143  CG  GLU A   9      14.749  15.642  14.611  0.00  0.00    +0.116 C 
BRANCH 143 144
ATOM    144  CD  GLU A   9      14.663  17.024  15.256  0.00  0.00    +0.365 C 
ATOM    145  OE2 GLU A   9      15.069  17.108  16.430  0.00  0.00    -0.246 OA
ATOM    146  OE1 GLU A   9      14.241  18.009  14.604  0.00  0.00    -0.246 OA
ENDBRANCH 143 144
ENDBRANCH 142 143
ENDBRANCH  83 142
ENDBRANCH  80  83
ENDBRANCH  78  79
BRANCH  78 147
ATOM    147  CB  VAL A   8      18.468  12.817  12.496  0.00  0.00    +0.027 C 
ATOM    148  CG2 VAL A   8      18.199  11.694  13.496  0.00  0.00    +0.002 C 
ATOM    149  CG1 VAL A   8      19.875  12.707  11.926  0.00  0.00    +0.002 C 
ENDBRANCH  78 147
ENDBRANCH   2  78
TORSDOF 59
REMARK  Name = ../refined-set-2016/4omk/4omk_pocket.pdb
REMARK  318 active torsions:
REMARK  status: ('A' for Active; 'I' for Inactive)
REMARK    1  A    between atoms: _1  and  _3
REMARK    2  A    between atoms: _3  and  _4
REMARK    3  A    between atoms: _3  and  _6
REMARK    4  A    between atoms: _6  and  _7
REMARK    5  A    between atoms: _10  and  _12
REMARK    6  A    between atoms: _12  and  _13
REMARK    7  A    between atoms: _12  and  _15
REMARK    8  A    between atoms: _15  and  _16
REMARK    9  A    between atoms: _21  and  _22
REMARK   10  A    between atoms: _24  and  _26
REMARK   11  A    between atoms: _26  and  _27
REMARK   12  A    between atoms: _26  and  _29
REMARK   13  A    between atoms: _29  and  _30
REMARK   14  A    between atoms: _33  and  _35
REMARK   15  A    between atoms: _35  and  _36
REMARK   16  A    between atoms: _35  and  _38
REMARK   17  A    between atoms: _38  and  _39
REMARK   18  A    between atoms: _41  and  _43
REMARK   19  A    between atoms: _43  and  _44
REMARK   20  A    between atoms: _43  and  _46
REMARK   21  A    between atoms: _46  and  _47
REMARK   22  A    between atoms: _57  and  _59
REMARK   23  A    between atoms: _59  and  _60
REMARK   24  A    between atoms: _59  and  _62
REMARK   25  A    between atoms: _62  and  _63
REMARK   26  A    between atoms: _66  and  _68
REMARK   27  A    between atoms: _68  and  _69
REMARK   28  A    between atoms: _68  and  _71
REMARK   29  A    between atoms: _71  and  _72
REMARK   30  A    between atoms: _75  and  _77
REMARK   31  A    between atoms: _77  and  _78
REMARK   32  A    between atoms: _77  and  _80
REMARK   33  A    between atoms: _80  and  _81
REMARK   34  A    between atoms: _84  and  _86
REMARK   35  A    between atoms: _86  and  _87
REMARK   36  A    between atoms: _86  and  _89
REMARK   37  A    between atoms: _89  and  _90
REMARK   38  A    between atoms: _93  and  _95
REMARK   39  A    between atoms: _95  and  _96
REMARK   40  A    between atoms: _99  and  _101
REMARK   41  A    between atoms: _101  and  _102
REMARK   42  A    between atoms: _101  and  _104
REMARK   43  A    between atoms: _104  and  _105
REMARK   44  A    between atoms: _105  and  _106
REMARK   45  A    between atoms: _106  and  _107
REMARK   46  A    between atoms: _107  and  _108
REMARK   47  A    between atoms: _112  and  _114
REMARK   48  A    between atoms: _114  and  _115
REMARK   49  A    between atoms: _117  and  _119
REMARK   50  A    between atoms: _119  and  _120
REMARK   51  A    between atoms: _119  and  _122
REMARK   52  A    between atoms: _122  and  _123
REMARK   53  A    between atoms: _126  and  _128
REMARK   54  A    between atoms: _128  and  _129
REMARK   55  A    between atoms: _128  and  _131
REMARK   56  A    between atoms: _131  and  _132
REMARK   57  A    between atoms: _135  and  _137
REMARK   58  A    between atoms: _137  and  _138
REMARK   59  A    between atoms: _137  and  _140
REMARK   60  A    between atoms: _140  and  _141
REMARK   61  A    between atoms: _147  and  _149
REMARK   62  A    between atoms: _149  and  _150
REMARK   63  A    between atoms: _149  and  _152
REMARK   64  A    between atoms: _152  and  _153
REMARK   65  A    between atoms: _155  and  _157
REMARK   66  A    between atoms: _157  and  _158
REMARK   67  A    between atoms: _157  and  _160
REMARK   68  A    between atoms: _160  and  _161
REMARK   69  A    between atoms: _161  and  _162
REMARK   70  A    between atoms: _162  and  _163
REMARK   71  A    between atoms: _163  and  _164
REMARK   72  A    between atoms: _168  and  _170
REMARK   73  A    between atoms: _170  and  _171
REMARK   74  A    between atoms: _170  and  _173
REMARK   75  A    between atoms: _173  and  _174
REMARK   76  A    between atoms: _174  and  _175
REMARK   77  A    between atoms: _180  and  _182
REMARK   78  A    between atoms: _182  and  _183
REMARK   79  A    between atoms: _182  and  _185
REMARK   80  A    between atoms: _185  and  _186
REMARK   81  A    between atoms: _189  and  _191
REMARK   82  A    between atoms: _191  and  _192
REMARK   83  A    between atoms: _191  and  _194
REMARK   84  A    between atoms: _194  and  _195
REMARK   85  A    between atoms: _198  and  _200
REMARK   86  A    between atoms: _200  and  _201
REMARK   87  A    between atoms: _200  and  _203
REMARK   88  A    between atoms: _203  and  _204
REMARK   89  A    between atoms: _207  and  _209
REMARK   90  A    between atoms: _209  and  _210
REMARK   91  A    between atoms: _209  and  _212
REMARK   92  A    between atoms: _212  and  _213
REMARK   93  A    between atoms: _213  and  _214
REMARK   94  A    between atoms: _214  and  _215
REMARK   95  A    between atoms: _224  and  _226
REMARK   96  A    between atoms: _226  and  _227
REMARK   97  A    between atoms: _226  and  _229
REMARK   98  A    between atoms: _229  and  _230
REMARK   99  A    between atoms: _233  and  _235
REMARK  100  A    between atoms: _235  and  _236
REMARK  101  A    between atoms: _235  and  _238
REMARK  102  A    between atoms: _238  and  _239
REMARK  103  A    between atoms: _239  and  _240
REMARK  104  A    between atoms: _240  and  _241
REMARK  105  A    between atoms: _241  and  _242
REMARK  106  A    between atoms: _246  and  _248
REMARK  107  A    between atoms: _248  and  _249
REMARK  108  A    between atoms: _248  and  _251
REMARK  109  A    between atoms: _251  and  _252
REMARK  110  A    between atoms: _252  and  _253
REMARK  111  A    between atoms: _255  and  _257
REMARK  112  A    between atoms: _257  and  _258
REMARK  113  A    between atoms: _257  and  _260
REMARK  114  A    between atoms: _260  and  _261
REMARK  115  A    between atoms: _261  and  _262
REMARK  116  A    between atoms: _265  and  _267
REMARK  117  A    between atoms: _267  and  _268
REMARK  118  A    between atoms: _267  and  _270
REMARK  119  A    between atoms: _272  and  _274
REMARK  120  A    between atoms: _274  and  _275
REMARK  121  A    between atoms: _274  and  _277
REMARK  122  A    between atoms: _277  and  _278
REMARK  123  A    between atoms: _281  and  _283
REMARK  124  A    between atoms: _283  and  _284
REMARK  125  A    between atoms: _283  and  _286
REMARK  126  A    between atoms: _286  and  _287
REMARK  127  A    between atoms: _290  and  _292
REMARK  128  A    between atoms: _292  and  _293
REMARK  129  A    between atoms: _292  and  _295
REMARK  130  A    between atoms: _295  and  _296
REMARK  131  A    between atoms: _301  and  _302
REMARK  132  A    between atoms: _304  and  _306
REMARK  133  A    between atoms: _306  and  _307
REMARK  134  A    between atoms: _306  and  _309
REMARK  135  A    between atoms: _309  and  _310
REMARK  136  A    between atoms: _313  and  _315
REMARK  137  A    between atoms: _315  and  _316
REMARK  138  A    between atoms: _315  and  _318
REMARK  139  A    between atoms: _320  and  _322
REMARK  140  A    between atoms: _322  and  _323
REMARK  141  A    between atoms: _322  and  _325
REMARK  142  A    between atoms: _325  and  _326
REMARK  143  A    between atoms: _329  and  _331
REMARK  144  A    between atoms: _331  and  _332
REMARK  145  A    between atoms: _334  and  _336
REMARK  146  A    between atoms: _336  and  _337
REMARK  147  A    between atoms: _336  and  _339
REMARK  148  A    between atoms: _339  and  _340
REMARK  149  A    between atoms: _340  and  _341
REMARK  150  A    between atoms: _341  and  _342
REMARK  151  A    between atoms: _342  and  _343
REMARK  152  A    between atoms: _347  and  _349
REMARK  153  A    between atoms: _349  and  _350
REMARK  154  A    between atoms: _349  and  _352
REMARK  155  A    between atoms: _352  and  _353
REMARK  156  A    between atoms: _358  and  _360
REMARK  157  A    between atoms: _360  and  _361
REMARK  158  A    between atoms: _360  and  _363
REMARK  159  A    between atoms: _363  and  _364
REMARK  160  A    between atoms: _367  and  _369
REMARK  161  A    between atoms: _369  and  _370
REMARK  162  A    between atoms: _369  and  _372
REMARK  163  A    between atoms: _372  and  _373
REMARK  164  A    between atoms: _383  and  _385
REMARK  165  A    between atoms: _385  and  _386
REMARK  166  A    between atoms: _385  and  _388
REMARK  167  A    between atoms: _388  and  _389
REMARK  168  A    between atoms: _389  and  _390
REMARK  169  A    between atoms: _390  and  _391
REMARK  170  A    between atoms: _391  and  _392
REMARK  171  A    between atoms: _397  and  _398
REMARK  172  A    between atoms: _403  and  _405
REMARK  173  A    between atoms: _405  and  _406
REMARK  174  A    between atoms: _409  and  _411
REMARK  175  A    between atoms: _411  and  _412
REMARK  176  A    between atoms: _411  and  _414
REMARK  177  A    between atoms: _417  and  _419
REMARK  178  A    between atoms: _419  and  _420
REMARK  179  A    between atoms: _419  and  _422
REMARK  180  A    between atoms: _422  and  _423
REMARK  181  A    between atoms: _423  and  _424
REMARK  182  A    between atoms: _427  and  _429
REMARK  183  A    between atoms: _429  and  _430
REMARK  184  A    between atoms: _433  and  _435
REMARK  185  A    between atoms: _435  and  _436
REMARK  186  A    between atoms: _435  and  _438
REMARK  187  A    between atoms: _438  and  _439
REMARK  188  A    between atoms: _444  and  _445
REMARK  189  A    between atoms: _447  and  _449
REMARK  190  A    between atoms: _449  and  _450
REMARK  191  A    between atoms: _452  and  _454
REMARK  192  A    between atoms: _454  and  _455
REMARK  193  A    between atoms: _454  and  _457
REMARK  194  A    between atoms: _457  and  _458
REMARK  195  A    between atoms: _458  and  _459
REMARK  196  A    between atoms: _462  and  _464
REMARK  197  A    between atoms: _464  and  _465
REMARK  198  A    between atoms: _464  and  _467
REMARK  199  A    between atoms: _467  and  _468
REMARK  200  A    between atoms: _474  and  _476
REMARK  201  A    between atoms: _476  and  _477
REMARK  202  A    between atoms: _476  and  _479
REMARK  203  A    between atoms: _479  and  _480
REMARK  204  A    between atoms: _483  and  _485
REMARK  205  A    between atoms: _485  and  _486
REMARK  206  A    between atoms: _485  and  _488
REMARK  207  A    between atoms: _488  and  _489
REMARK  208  A    between atoms: _489  and  _490
REMARK  209  A    between atoms: _492  and  _494
REMARK  210  A    between atoms: _494  and  _495
REMARK  211  A    between atoms: _494  and  _497
REMARK  212  A    between atoms: _497  and  _498
REMARK  213  A    between atoms: _504  and  _506
REMARK  214  A    between atoms: _506  and  _507
REMARK  215  A    between atoms: _506  and  _509
REMARK  216  A    between atoms: _509  and  _510
REMARK  217  A    between atoms: _510  and  _511
REMARK  218  A    between atoms: _514  and  _516
REMARK  219  A    between atoms: _516  and  _517
REMARK  220  A    between atoms: _516  and  _519
REMARK  221  A    between atoms: _519  and  _520
REMARK  222  A    between atoms: _523  and  _525
REMARK  223  A    between atoms: _525  and  _526
REMARK  224  A    between atoms: _525  and  _528
REMARK  225  A    between atoms: _528  and  _529
REMARK  226  A    between atoms: _532  and  _534
REMARK  227  A    between atoms: _534  and  _535
REMARK  228  A    between atoms: _534  and  _537
REMARK  229  A    between atoms: _537  and  _538
REMARK  230  A    between atoms: _544  and  _546
REMARK  231  A    between atoms: _546  and  _547
REMARK  232  A    between atoms: _546  and  _549
REMARK  233  A    between atoms: _552  and  _554
REMARK  234  A    between atoms: _554  and  _555
REMARK  235  A    between atoms: _559  and  _560
REMARK  236  A    between atoms: _565  and  _567
REMARK  237  A    between atoms: _567  and  _568
REMARK  238  A    between atoms: _567  and  _570
REMARK  239  A    between atoms: _570  and  _571
REMARK  240  A    between atoms: _574  and  _576
REMARK  241  A    between atoms: _576  and  _577
REMARK  242  A    between atoms: _576  and  _579
REMARK  243  A    between atoms: _579  and  _580
REMARK  244  A    between atoms: _587  and  _588
REMARK  245  A    between atoms: _593  and  _595
REMARK  246  A    between atoms: _595  and  _596
REMARK  247  A    between atoms: _595  and  _598
REMARK  248  A    between atoms: _601  and  _603
REMARK  249  A    between atoms: _603  and  _604
REMARK  250  A    between atoms: _607  and  _609
REMARK  251  A    between atoms: _609  and  _610
REMARK  252  A    between atoms: _609  and  _612
REMARK  253  A    between atoms: _612  and  _613
REMARK  254  A    between atoms: _618  and  _619
REMARK  255  A    between atoms: _621  and  _623
REMARK  256  A    between atoms: _623  and  _624
REMARK  257  A    between atoms: _623  and  _626
REMARK  258  A    between atoms: _626  and  _627
REMARK  259  A    between atoms: _632  and  _634
REMARK  260  A    between atoms: _634  and  _635
REMARK  261  A    between atoms: _634  and  _637
REMARK  262  A    between atoms: _637  and  _638
REMARK  263  A    between atoms: _641  and  _643
REMARK  264  A    between atoms: _643  and  _644
REMARK  265  A    between atoms: _643  and  _646
REMARK  266  A    between atoms: _646  and  _647
REMARK  267  A    between atoms: _650  and  _652
REMARK  268  A    between atoms: _652  and  _653
REMARK  269  A    between atoms: _652  and  _655
REMARK  270  A    between atoms: _655  and  _656
REMARK  271  A    between atoms: _656  and  _657
REMARK  272  A    between atoms: _657  and  _658
REMARK  273  A    between atoms: _658  and  _659
REMARK  274  A    between atoms: _663  and  _665
REMARK  275  A    between atoms: _665  and  _666
REMARK  276  A    between atoms: _665  and  _668
REMARK  277  A    between atoms: _668  and  _669
REMARK  278  A    between atoms: _675  and  _677
REMARK  279  A    between atoms: _677  and  _678
REMARK  280  A    between atoms: _677  and  _680
REMARK  281  A    between atoms: _680  and  _681
REMARK  282  A    between atoms: _684  and  _686
REMARK  283  A    between atoms: _686  and  _687
REMARK  284  A    between atoms: _686  and  _689
REMARK  285  A    between atoms: _689  and  _690
REMARK  286  A    between atoms: _692  and  _694
REMARK  287  A    between atoms: _694  and  _695
REMARK  288  A    between atoms: _694  and  _697
REMARK  289  A    between atoms: _697  and  _698
REMARK  290  A    between atoms: _701  and  _703
REMARK  291  A    between atoms: _703  and  _704
REMARK  292  A    between atoms: _703  and  _706
REMARK  293  A    between atoms: _706  and  _707
REMARK  294  A    between atoms: _707  and  _708
REMARK  295  A    between atoms: _708  and  _709
REMARK  296  A    between atoms: _718  and  _720
REMARK  297  A    between atoms: _720  and  _721
REMARK  298  A    between atoms: _720  and  _723
REMARK  299  A    between atoms: _723  and  _724
REMARK  300  A    between atoms: _724  and  _725
REMARK  301  A    between atoms: _725  and  _726
REMARK  302  A    between atoms: _726  and  _727
REMARK  303  A    between atoms: _731  and  _733
REMARK  304  A    between atoms: _733  and  _734
REMARK  305  A    between atoms: _733  and  _736
REMARK  306  A    between atoms: _736  and  _737
REMARK  307  A    between atoms: _740  and  _742
REMARK  308  A    between atoms: _742  and  _743
REMARK  309  A    between atoms: _742  and  _745
REMARK  310  A    between atoms: _745  and  _746
REMARK  311  A    between atoms: _746  and  _747
REMARK  312  A    between atoms: _749  and  _751
REMARK  313  A    between atoms: _751  and  _752
REMARK  314  A    between atoms: _751  and  _754
REMARK  315  A    between atoms: _757  and  _759
REMARK  316  A    between atoms: _759  and  _760
REMARK  317  A    between atoms: _759  and  _762
REMARK  318  A    between atoms: _762  and  _763
REMARK                            x       y       z     vdW  Elec       q    Type
REMARK                         _______ _______ _______ _____ _____    ______ ____
ROOT
ATOM      1  CA  PHE A   2       6.679   2.591   8.725  0.00  0.00    +0.153 C 
ENDROOT
BRANCH   1   4
ATOM      2  C   MET A   1       5.258   4.375   9.588  0.00  0.00    +0.238 C 
ATOM      3  O   MET A   1       4.261   3.667   9.564  0.00  0.00    -0.274 OA
ATOM      4  N   PHE A   2       6.464   3.948   9.222  0.00  0.00    -0.297 N 
ATOM      5  H   PHE A   2       7.274   4.597   9.291  0.00  0.00    +0.150 HD
BRANCH   2   6
ATOM      6  CA  MET A   1       5.181   5.820  10.080  0.00  0.00    +0.146 C 
BRANCH   6   7
ATOM      7  N   MET A   1       6.285   6.070  11.011  0.00  0.00    -0.238 NA
ATOM      8  H   MET A   1       6.966   6.824  10.789  0.00  0.00    +0.142 HD
ENDBRANCH   6   7
BRANCH   6   9
ATOM      9  CB  MET A   1       5.234   6.797   8.900  0.00  0.00    +0.038 C 
BRANCH   9  10
ATOM     10  CG  MET A   1       4.100   6.679   7.875  0.00  0.00    +0.060 C 
BRANCH  10  11
ATOM     11  SD  MET A   1       4.242   5.234   6.757  0.00  0.00    -0.139 S 
ATOM     12  CE  MET A   1       5.644   5.648   5.710  0.00  0.00    +0.069 C 
ENDBRANCH  10  11
ENDBRANCH   9  10
ENDBRANCH   6   9
ENDBRANCH   2   6
ENDBRANCH   1   4
BRANCH   1  13
ATOM     13  C   PHE A   2       6.303   1.567   9.780  0.00  0.00    +0.241 C 
ATOM     14  N   GLU A   3       6.784   1.760  11.006  0.00  0.00    -0.298 N 
ATOM     15  H   GLU A   3       7.349   2.610  11.206  0.00  0.00    +0.150 HD
ATOM     16  O   PHE A   2       5.573   0.609   9.486  0.00  0.00    -0.273 OA
BRANCH  14  17
ATOM     17  CA  GLU A   3       6.530   0.795  12.076  0.00  0.00    +0.137 C 
BRANCH  17  18
ATOM     18  C   GLU A   3       5.053   0.721  12.450  0.00  0.00    +0.227 C 
ATOM     19  O   GLU A   3       4.554  -0.347  12.812  0.00  0.00    -0.286 OA
ENDBRANCH  17  18
BRANCH  17  20
ATOM     20  CB  GLU A   3       7.350   1.120  13.310  0.00  0.00    +0.039 C 
BRANCH  20  21
ATOM     21  CG  GLU A   3       8.849   0.996  13.094  0.00  0.00    +0.116 C 
BRANCH  21  22
ATOM     22  CD  GLU A   3       9.376  -0.407  13.073  0.00  0.00    +0.365 C 
ATOM     23  OE2 GLU A   3       8.596  -1.377  13.170  0.00  0.00    -0.246 OA
ATOM     24  OE1 GLU A   3      10.600  -0.548  12.954  0.00  0.00    -0.246 OA
ENDBRANCH  21  22
ENDBRANCH  20  21
ENDBRANCH  17  20
ENDBRANCH  14  17
ENDBRANCH   1  13
BRANCH   1  25
ATOM     25  CB  PHE A   2       8.120   2.390   8.302  0.00  0.00    +0.055 C 
BRANCH  25  26
ATOM     26  CG  PHE A   2       8.411   1.017   7.826  0.00  0.00    -0.020 A 
ATOM     27  CD2 PHE A   2       9.092   0.127   8.620  0.00  0.00    -0.004 A 
ATOM     28  CE2 PHE A   2       9.365  -1.148   8.154  0.00  0.00    -0.000 A 
ATOM     29  CZ  PHE A   2       8.958  -1.529   6.885  0.00  0.00    -0.000 A 
ATOM     30  CE1 PHE A   2       8.291  -0.643   6.084  0.00  0.00    -0.000 A 
ATOM     31  CD1 PHE A   2       8.031   0.627   6.548  0.00  0.00    -0.004 A 
ENDBRANCH  25  26
ENDBRANCH   1  25
TORSDOF 14
REMARK  Name = ../refined-set-2016/4omk/4omk_pocket.pdb
REMARK  318 active torsions:
REMARK  status: ('A' for Active; 'I' for Inactive)
REMARK    1  A    between atoms: _1  and  _3
REMARK    2  A    between atoms: _3  and  _4
REMARK    3  A    between atoms: _3  and  _6
REMARK    4  A    between atoms: _6  and  _7
REMARK    5  A    between atoms: _10  and  _12
REMARK    6  A    between atoms: _12  and  _13
REMARK    7  A    between atoms: _12  and  _15
REMARK    8  A    between atoms: _15  and  _16
REMARK    9  A    between atoms: _21  and  _22
REMARK   10  A    between atoms: _24  and  _26
REMARK   11  A    between atoms: _26  and  _27
REMARK   12  A    between atoms: _26  and  _29
REMARK   13  A    between atoms: _29  and  _30
REMARK   14  A    between atoms: _33  and  _35
REMARK   15  A    between atoms: _35  and  _36
REMARK   16  A    between atoms: _35  and  _38
REMARK   17  A    between atoms: _38  and  _39
REMARK   18  A    between atoms: _41  and  _43
REMARK   19  A    between atoms: _43  and  _44
REMARK   20  A    between atoms: _43  and  _46
REMARK   21  A    between atoms: _46  and  _47
REMARK   22  A    between atoms: _57  and  _59
REMARK   23  A    between atoms: _59  and  _60
REMARK   24  A    between atoms: _59  and  _62
REMARK   25  A    between atoms: _62  and  _63
REMARK   26  A    between atoms: _66  and  _68
REMARK   27  A    between atoms: _68  and  _69
REMARK   28  A    between atoms: _68  and  _71
REMARK   29  A    between atoms: _71  and  _72
REMARK   30  A    between atoms: _75  and  _77
REMARK   31  A    between atoms: _77  and  _78
REMARK   32  A    between atoms: _77  and  _80
REMARK   33  A    between atoms: _80  and  _81
REMARK   34  A    between atoms: _84  and  _86
REMARK   35  A    between atoms: _86  and  _87
REMARK   36  A    between atoms: _86  and  _89
REMARK   37  A    between atoms: _89  and  _90
REMARK   38  A    between atoms: _93  and  _95
REMARK   39  A    between atoms: _95  and  _96
REMARK   40  A    between atoms: _99  and  _101
REMARK   41  A    between atoms: _101  and  _102
REMARK   42  A    between atoms: _101  and  _104
REMARK   43  A    between atoms: _104  and  _105
REMARK   44  A    between atoms: _105  and  _106
REMARK   45  A    between atoms: _106  and  _107
REMARK   46  A    between atoms: _107  and  _108
REMARK   47  A    between atoms: _112  and  _114
REMARK   48  A    between atoms: _114  and  _115
REMARK   49  A    between atoms: _117  and  _119
REMARK   50  A    between atoms: _119  and  _120
REMARK   51  A    between atoms: _119  and  _122
REMARK   52  A    between atoms: _122  and  _123
REMARK   53  A    between atoms: _126  and  _128
REMARK   54  A    between atoms: _128  and  _129
REMARK   55  A    between atoms: _128  and  _131
REMARK   56  A    between atoms: _131  and  _132
REMARK   57  A    between atoms: _135  and  _137
REMARK   58  A    between atoms: _137  and  _138
REMARK   59  A    between atoms: _137  and  _140
REMARK   60  A    between atoms: _140  and  _141
REMARK   61  A    between atoms: _147  and  _149
REMARK   62  A    between atoms: _149  and  _150
REMARK   63  A    between atoms: _149  and  _152
REMARK   64  A    between atoms: _152  and  _153
REMARK   65  A    between atoms: _155  and  _157
REMARK   66  A    between atoms: _157  and  _158
REMARK   67  A    between atoms: _157  and  _160
REMARK   68  A    between atoms: _160  and  _161
REMARK   69  A    between atoms: _161  and  _162
REMARK   70  A    between atoms: _162  and  _163
REMARK   71  A    between atoms: _163  and  _164
REMARK   72  A    between atoms: _168  and  _170
REMARK   73  A    between atoms: _170  and  _171
REMARK   74  A    between atoms: _170  and  _173
REMARK   75  A    between atoms: _173  and  _174
REMARK   76  A    between atoms: _174  and  _175
REMARK   77  A    between atoms: _180  and  _182
REMARK   78  A    between atoms: _182  and  _183
REMARK   79  A    between atoms: _182  and  _185
REMARK   80  A    between atoms: _185  and  _186
REMARK   81  A    between atoms: _189  and  _191
REMARK   82  A    between atoms: _191  and  _192
REMARK   83  A    between atoms: _191  and  _194
REMARK   84  A    between atoms: _194  and  _195
REMARK   85  A    between atoms: _198  and  _200
REMARK   86  A    between atoms: _200  and  _201
REMARK   87  A    between atoms: _200  and  _203
REMARK   88  A    between atoms: _203  and  _204
REMARK   89  A    between atoms: _207  and  _209
REMARK   90  A    between atoms: _209  and  _210
REMARK   91  A    between atoms: _209  and  _212
REMARK   92  A    between atoms: _212  and  _213
REMARK   93  A    between atoms: _213  and  _214
REMARK   94  A    between atoms: _214  and  _215
REMARK   95  A    between atoms: _224  and  _226
REMARK   96  A    between atoms: _226  and  _227
REMARK   97  A    between atoms: _226  and  _229
REMARK   98  A    between atoms: _229  and  _230
REMARK   99  A    between atoms: _233  and  _235
REMARK  100  A    between atoms: _235  and  _236
REMARK  101  A    between atoms: _235  and  _238
REMARK  102  A    between atoms: _238  and  _239
REMARK  103  A    between atoms: _239  and  _240
REMARK  104  A    between atoms: _240  and  _241
REMARK  105  A    between atoms: _241  and  _242
REMARK  106  A    between atoms: _246  and  _248
REMARK  107  A    between atoms: _248  and  _249
REMARK  108  A    between atoms: _248  and  _251
REMARK  109  A    between atoms: _251  and  _252
REMARK  110  A    between atoms: _252  and  _253
REMARK  111  A    between atoms: _255  and  _257
REMARK  112  A    between atoms: _257  and  _258
REMARK  113  A    between atoms: _257  and  _260
REMARK  114  A    between atoms: _260  and  _261
REMARK  115  A    between atoms: _261  and  _262
REMARK  116  A    between atoms: _265  and  _267
REMARK  117  A    between atoms: _267  and  _268
REMARK  118  A    between atoms: _267  and  _270
REMARK  119  A    between atoms: _272  and  _274
REMARK  120  A    between atoms: _274  and  _275
REMARK  121  A    between atoms: _274  and  _277
REMARK  122  A    between atoms: _277  and  _278
REMARK  123  A    between atoms: _281  and  _283
REMARK  124  A    between atoms: _283  and  _284
REMARK  125  A    between atoms: _283  and  _286
REMARK  126  A    between atoms: _286  and  _287
REMARK  127  A    between atoms: _290  and  _292
REMARK  128  A    between atoms: _292  and  _293
REMARK  129  A    between atoms: _292  and  _295
REMARK  130  A    between atoms: _295  and  _296
REMARK  131  A    between atoms: _301  and  _302
REMARK  132  A    between atoms: _304  and  _306
REMARK  133  A    between atoms: _306  and  _307
REMARK  134  A    between atoms: _306  and  _309
REMARK  135  A    between atoms: _309  and  _310
REMARK  136  A    between atoms: _313  and  _315
REMARK  137  A    between atoms: _315  and  _316
REMARK  138  A    between atoms: _315  and  _318
REMARK  139  A    between atoms: _320  and  _322
REMARK  140  A    between atoms: _322  and  _323
REMARK  141  A    between atoms: _322  and  _325
REMARK  142  A    between atoms: _325  and  _326
REMARK  143  A    between atoms: _329  and  _331
REMARK  144  A    between atoms: _331  and  _332
REMARK  145  A    between atoms: _334  and  _336
REMARK  146  A    between atoms: _336  and  _337
REMARK  147  A    between atoms: _336  and  _339
REMARK  148  A    between atoms: _339  and  _340
REMARK  149  A    between atoms: _340  and  _341
REMARK  150  A    between atoms: _341  and  _342
REMARK  151  A    between atoms: _342  and  _343
REMARK  152  A    between atoms: _347  and  _349
REMARK  153  A    between atoms: _349  and  _350
REMARK  154  A    between atoms: _349  and  _352
REMARK  155  A    between atoms: _352  and  _353
REMARK  156  A    between atoms: _358  and  _360
REMARK  157  A    between atoms: _360  and  _361
REMARK  158  A    between atoms: _360  and  _363
REMARK  159  A    between atoms: _363  and  _364
REMARK  160  A    between atoms: _367  and  _369
REMARK  161  A    between atoms: _369  and  _370
REMARK  162  A    between atoms: _369  and  _372
REMARK  163  A    between atoms: _372  and  _373
REMARK  164  A    between atoms: _383  and  _385
REMARK  165  A    between atoms: _385  and  _386
REMARK  166  A    between atoms: _385  and  _388
REMARK  167  A    between atoms: _388  and  _389
REMARK  168  A    between atoms: _389  and  _390
REMARK  169  A    between atoms: _390  and  _391
REMARK  170  A    between atoms: _391  and  _392
REMARK  171  A    between atoms: _397  and  _398
REMARK  172  A    between atoms: _403  and  _405
REMARK  173  A    between atoms: _405  and  _406
REMARK  174  A    between atoms: _409  and  _411
REMARK  175  A    between atoms: _411  and  _412
REMARK  176  A    between atoms: _411  and  _414
REMARK  177  A    between atoms: _417  and  _419
REMARK  178  A    between atoms: _419  and  _420
REMARK  179  A    between atoms: _419  and  _422
REMARK  180  A    between atoms: _422  and  _423
REMARK  181  A    between atoms: _423  and  _424
REMARK  182  A    between atoms: _427  and  _429
REMARK  183  A    between atoms: _429  and  _430
REMARK  184  A    between atoms: _433  and  _435
REMARK  185  A    between atoms: _435  and  _436
REMARK  186  A    between atoms: _435  and  _438
REMARK  187  A    between atoms: _438  and  _439
REMARK  188  A    between atoms: _444  and  _445
REMARK  189  A    between atoms: _447  and  _449
REMARK  190  A    between atoms: _449  and  _450
REMARK  191  A    between atoms: _452  and  _454
REMARK  192  A    between atoms: _454  and  _455
REMARK  193  A    between atoms: _454  and  _457
REMARK  194  A    between atoms: _457  and  _458
REMARK  195  A    between atoms: _458  and  _459
REMARK  196  A    between atoms: _462  and  _464
REMARK  197  A    between atoms: _464  and  _465
REMARK  198  A    between atoms: _464  and  _467
REMARK  199  A    between atoms: _467  and  _468
REMARK  200  A    between atoms: _474  and  _476
REMARK  201  A    between atoms: _476  and  _477
REMARK  202  A    between atoms: _476  and  _479
REMARK  203  A    between atoms: _479  and  _480
REMARK  204  A    between atoms: _483  and  _485
REMARK  205  A    between atoms: _485  and  _486
REMARK  206  A    between atoms: _485  and  _488
REMARK  207  A    between atoms: _488  and  _489
REMARK  208  A    between atoms: _489  and  _490
REMARK  209  A    between atoms: _492  and  _494
REMARK  210  A    between atoms: _494  and  _495
REMARK  211  A    between atoms: _494  and  _497
REMARK  212  A    between atoms: _497  and  _498
REMARK  213  A    between atoms: _504  and  _506
REMARK  214  A    between atoms: _506  and  _507
REMARK  215  A    between atoms: _506  and  _509
REMARK  216  A    between atoms: _509  and  _510
REMARK  217  A    between atoms: _510  and  _511
REMARK  218  A    between atoms: _514  and  _516
REMARK  219  A    between atoms: _516  and  _517
REMARK  220  A    between atoms: _516  and  _519
REMARK  221  A    between atoms: _519  and  _520
REMARK  222  A    between atoms: _523  and  _525
REMARK  223  A    between atoms: _525  and  _526
REMARK  224  A    between atoms: _525  and  _528
REMARK  225  A    between atoms: _528  and  _529
REMARK  226  A    between atoms: _532  and  _534
REMARK  227  A    between atoms: _534  and  _535
REMARK  228  A    between atoms: _534  and  _537
REMARK  229  A    between atoms: _537  and  _538
REMARK  230  A    between atoms: _544  and  _546
REMARK  231  A    between atoms: _546  and  _547
REMARK  232  A    between atoms: _546  and  _549
REMARK  233  A    between atoms: _552  and  _554
REMARK  234  A    between atoms: _554  and  _555
REMARK  235  A    between atoms: _559  and  _560
REMARK  236  A    between atoms: _565  and  _567
REMARK  237  A    between atoms: _567  and  _568
REMARK  238  A    between atoms: _567  and  _570
REMARK  239  A    between atoms: _570  and  _571
REMARK  240  A    between atoms: _574  and  _576
REMARK  241  A    between atoms: _576  and  _577
REMARK  242  A    between atoms: _576  and  _579
REMARK  243  A    between atoms: _579  and  _580
REMARK  244  A    between atoms: _587  and  _588
REMARK  245  A    between atoms: _593  and  _595
REMARK  246  A    between atoms: _595  and  _596
REMARK  247  A    between atoms: _595  and  _598
REMARK  248  A    between atoms: _601  and  _603
REMARK  249  A    between atoms: _603  and  _604
REMARK  250  A    between atoms: _607  and  _609
REMARK  251  A    between atoms: _609  and  _610
REMARK  252  A    between atoms: _609  and  _612
REMARK  253  A    between atoms: _612  and  _613
REMARK  254  A    between atoms: _618  and  _619
REMARK  255  A    between atoms: _621  and  _623
REMARK  256  A    between atoms: _623  and  _624
REMARK  257  A    between atoms: _623  and  _626
REMARK  258  A    between atoms: _626  and  _627
REMARK  259  A    between atoms: _632  and  _634
REMARK  260  A    between atoms: _634  and  _635
REMARK  261  A    between atoms: _634  and  _637
REMARK  262  A    between atoms: _637  and  _638
REMARK  263  A    between atoms: _641  and  _643
REMARK  264  A    between atoms: _643  and  _644
REMARK  265  A    between atoms: _643  and  _646
REMARK  266  A    between atoms: _646  and  _647
REMARK  267  A    between atoms: _650  and  _652
REMARK  268  A    between atoms: _652  and  _653
REMARK  269  A    between atoms: _652  and  _655
REMARK  270  A    between atoms: _655  and  _656
REMARK  271  A    between atoms: _656  and  _657
REMARK  272  A    between atoms: _657  and  _658
REMARK  273  A    between atoms: _658  and  _659
REMARK  274  A    between atoms: _663  and  _665
REMARK  275  A    between atoms: _665  and  _666
REMARK  276  A    between atoms: _665  and  _668
REMARK  277  A    between atoms: _668  and  _669
REMARK  278  A    between atoms: _675  and  _677
REMARK  279  A    between atoms: _677  and  _678
REMARK  280  A    between atoms: _677  and  _680
REMARK  281  A    between atoms: _680  and  _681
REMARK  282  A    between atoms: _684  and  _686
REMARK  283  A    between atoms: _686  and  _687
REMARK  284  A    between atoms: _686  and  _689
REMARK  285  A    between atoms: _689  and  _690
REMARK  286  A    between atoms: _692  and  _694
REMARK  287  A    between atoms: _694  and  _695
REMARK  288  A    between atoms: _694  and  _697
REMARK  289  A    between atoms: _697  and  _698
REMARK  290  A    between atoms: _701  and  _703
REMARK  291  A    between atoms: _703  and  _704
REMARK  292  A    between atoms: _703  and  _706
REMARK  293  A    between atoms: _706  and  _707
REMARK  294  A    between atoms: _707  and  _708
REMARK  295  A    between atoms: _708  and  _709
REMARK  296  A    between atoms: _718  and  _720
REMARK  297  A    between atoms: _720  and  _721
REMARK  298  A    between atoms: _720  and  _723
REMARK  299  A    between atoms: _723  and  _724
REMARK  300  A    between atoms: _724  and  _725
REMARK  301  A    between atoms: _725  and  _726
REMARK  302  A    between atoms: _726  and  _727
REMARK  303  A    between atoms: _731  and  _733
REMARK  304  A    between atoms: _733  and  _734
REMARK  305  A    between atoms: _733  and  _736
REMARK  306  A    between atoms: _736  and  _737
REMARK  307  A    between atoms: _740  and  _742
REMARK  308  A    between atoms: _742  and  _743
REMARK  309  A    between atoms: _742  and  _745
REMARK  310  A    between atoms: _745  and  _746
REMARK  311  A    between atoms: _746  and  _747
REMARK  312  A    between atoms: _749  and  _751
REMARK  313  A    between atoms: _751  and  _752
REMARK  314  A    between atoms: _751  and  _754
REMARK  315  A    between atoms: _757  and  _759
REMARK  316  A    between atoms: _759  and  _760
REMARK  317  A    between atoms: _759  and  _762
REMARK  318  A    between atoms: _762  and  _763
REMARK                            x       y       z     vdW  Elec       q    Type
REMARK                         _______ _______ _______ _____ _____    ______ ____
ROOT
ATOM      1  CA  LEU A   1      10.371  -6.202   6.575  0.00  0.00    +0.133 C 
ENDROOT
BRANCH   1   2
ATOM      2  N   LEU A   1       8.947  -5.970   6.821  0.00  0.00    -0.239 NA
ATOM      3  H   LEU A   1       8.644  -5.459   7.675  0.00  0.00    +0.142 HD
ENDBRANCH   1   2
BRANCH   1   4
ATOM      4  C   LEU A   1      10.767  -7.662   6.792  0.00  0.00    +0.224 C 
ATOM      5  O   LEU A   1      10.457  -8.246   7.843  0.00  0.00    -0.287 OA
ENDBRANCH   1   4
BRANCH   1   6
ATOM      6  CB  LEU A   1      11.214  -5.312   7.482  0.00  0.00    +0.025 C 
BRANCH   6   7
ATOM      7  CG  LEU A   1      12.721  -5.382   7.254  0.00  0.00    +0.002 C 
ATOM      8  CD2 LEU A   1      13.433  -4.560   8.337  0.00  0.00    +0.000 C 
ATOM      9  CD1 LEU A   1      13.113  -4.885   5.886  0.00  0.00    +0.000 C 
ENDBRANCH   6   7
ENDBRANCH   1   6
TORSDOF 4
REMARK  Name = ../refined-set-2016/4omk/4omk_pocket.pdb
REMARK  318 active torsions:
REMARK  status: ('A' for Active; 'I' for Inactive)
REMARK    1  A    between atoms: _1  and  _3
REMARK    2  A    between atoms: _3  and  _4
REMARK    3  A    between atoms: _3  and  _6
REMARK    4  A    between atoms: _6  and  _7
REMARK    5  A    between atoms: _10  and  _12
REMARK    6  A    between atoms: _12  and  _13
REMARK    7  A    between atoms: _12  and  _15
REMARK    8  A    between atoms: _15  and  _16
REMARK    9  A    between atoms: _21  and  _22
REMARK   10  A    between atoms: _24  and  _26
REMARK   11  A    between atoms: _26  and  _27
REMARK   12  A    between atoms: _26  and  _29
REMARK   13  A    between atoms: _29  and  _30
REMARK   14  A    between atoms: _33  and  _35
REMARK   15  A    between atoms: _35  and  _36
REMARK   16  A    between atoms: _35  and  _38
REMARK   17  A    between atoms: _38  and  _39
REMARK   18  A    between atoms: _41  and  _43
REMARK   19  A    between atoms: _43  and  _44
REMARK   20  A    between atoms: _43  and  _46
REMARK   21  A    between atoms: _46  and  _47
REMARK   22  A    between atoms: _57  and  _59
REMARK   23  A    between atoms: _59  and  _60
REMARK   24  A    between atoms: _59  and  _62
REMARK   25  A    between atoms: _62  and  _63
REMARK   26  A    between atoms: _66  and  _68
REMARK   27  A    between atoms: _68  and  _69
REMARK   28  A    between atoms: _68  and  _71
REMARK   29  A    between atoms: _71  and  _72
REMARK   30  A    between atoms: _75  and  _77
REMARK   31  A    between atoms: _77  and  _78
REMARK   32  A    between atoms: _77  and  _80
REMARK   33  A    between atoms: _80  and  _81
REMARK   34  A    between atoms: _84  and  _86
REMARK   35  A    between atoms: _86  and  _87
REMARK   36  A    between atoms: _86  and  _89
REMARK   37  A    between atoms: _89  and  _90
REMARK   38  A    between atoms: _93  and  _95
REMARK   39  A    between atoms: _95  and  _96
REMARK   40  A    between atoms: _99  and  _101
REMARK   41  A    between atoms: _101  and  _102
REMARK   42  A    between atoms: _101  and  _104
REMARK   43  A    between atoms: _104  and  _105
REMARK   44  A    between atoms: _105  and  _106
REMARK   45  A    between atoms: _106  and  _107
REMARK   46  A    between atoms: _107  and  _108
REMARK   47  A    between atoms: _112  and  _114
REMARK   48  A    between atoms: _114  and  _115
REMARK   49  A    between atoms: _117  and  _119
REMARK   50  A    between atoms: _119  and  _120
REMARK   51  A    between atoms: _119  and  _122
REMARK   52  A    between atoms: _122  and  _123
REMARK   53  A    between atoms: _126  and  _128
REMARK   54  A    between atoms: _128  and  _129
REMARK   55  A    between atoms: _128  and  _131
REMARK   56  A    between atoms: _131  and  _132
REMARK   57  A    between atoms: _135  and  _137
REMARK   58  A    between atoms: _137  and  _138
REMARK   59  A    between atoms: _137  and  _140
REMARK   60  A    between atoms: _140  and  _141
REMARK   61  A    between atoms: _147  and  _149
REMARK   62  A    between atoms: _149  and  _150
REMARK   63  A    between atoms: _149  and  _152
REMARK   64  A    between atoms: _152  and  _153
REMARK   65  A    between atoms: _155  and  _157
REMARK   66  A    between atoms: _157  and  _158
REMARK   67  A    between atoms: _157  and  _160
REMARK   68  A    between atoms: _160  and  _161
REMARK   69  A    between atoms: _161  and  _162
REMARK   70  A    between atoms: _162  and  _163
REMARK   71  A    between atoms: _163  and  _164
REMARK   72  A    between atoms: _168  and  _170
REMARK   73  A    between atoms: _170  and  _171
REMARK   74  A    between atoms: _170  and  _173
REMARK   75  A    between atoms: _173  and  _174
REMARK   76  A    between atoms: _174  and  _175
REMARK   77  A    between atoms: _180  and  _182
REMARK   78  A    between atoms: _182  and  _183
REMARK   79  A    between atoms: _182  and  _185
REMARK   80  A    between atoms: _185  and  _186
REMARK   81  A    between atoms: _189  and  _191
REMARK   82  A    between atoms: _191  and  _192
REMARK   83  A    between atoms: _191  and  _194
REMARK   84  A    between atoms: _194  and  _195
REMARK   85  A    between atoms: _198  and  _200
REMARK   86  A    between atoms: _200  and  _201
REMARK   87  A    between atoms: _200  and  _203
REMARK   88  A    between atoms: _203  and  _204
REMARK   89  A    between atoms: _207  and  _209
REMARK   90  A    between atoms: _209  and  _210
REMARK   91  A    between atoms: _209  and  _212
REMARK   92  A    between atoms: _212  and  _213
REMARK   93  A    between atoms: _213  and  _214
REMARK   94  A    between atoms: _214  and  _215
REMARK   95  A    between atoms: _224  and  _226
REMARK   96  A    between atoms: _226  and  _227
REMARK   97  A    between atoms: _226  and  _229
REMARK   98  A    between atoms: _229  and  _230
REMARK   99  A    between atoms: _233  and  _235
REMARK  100  A    between atoms: _235  and  _236
REMARK  101  A    between atoms: _235  and  _238
REMARK  102  A    between atoms: _238  and  _239
REMARK  103  A    between atoms: _239  and  _240
REMARK  104  A    between atoms: _240  and  _241
REMARK  105  A    between atoms: _241  and  _242
REMARK  106  A    between atoms: _246  and  _248
REMARK  107  A    between atoms: _248  and  _249
REMARK  108  A    between atoms: _248  and  _251
REMARK  109  A    between atoms: _251  and  _252
REMARK  110  A    between atoms: _252  and  _253
REMARK  111  A    between atoms: _255  and  _257
REMARK  112  A    between atoms: _257  and  _258
REMARK  113  A    between atoms: _257  and  _260
REMARK  114  A    between atoms: _260  and  _261
REMARK  115  A    between atoms: _261  and  _262
REMARK  116  A    between atoms: _265  and  _267
REMARK  117  A    between atoms: _267  and  _268
REMARK  118  A    between atoms: _267  and  _270
REMARK  119  A    between atoms: _272  and  _274
REMARK  120  A    between atoms: _274  and  _275
REMARK  121  A    between atoms: _274  and  _277
REMARK  122  A    between atoms: _277  and  _278
REMARK  123  A    between atoms: _281  and  _283
REMARK  124  A    between atoms: _283  and  _284
REMARK  125  A    between atoms: _283  and  _286
REMARK  126  A    between atoms: _286  and  _287
REMARK  127  A    between atoms: _290  and  _292
REMARK  128  A    between atoms: _292  and  _293
REMARK  129  A    between atoms: _292  and  _295
REMARK  130  A    between atoms: _295  and  _296
REMARK  131  A    between atoms: _301  and  _302
REMARK  132  A    between atoms: _304  and  _306
REMARK  133  A    between atoms: _306  and  _307
REMARK  134  A    between atoms: _306  and  _309
REMARK  135  A    between atoms: _309  and  _310
REMARK  136  A    between atoms: _313  and  _315
REMARK  137  A    between atoms: _315  and  _316
REMARK  138  A    between atoms: _315  and  _318
REMARK  139  A    between atoms: _320  and  _322
REMARK  140  A    between atoms: _322  and  _323
REMARK  141  A    between atoms: _322  and  _325
REMARK  142  A    between atoms: _325  and  _326
REMARK  143  A    between atoms: _329  and  _331
REMARK  144  A    between atoms: _331  and  _332
REMARK  145  A    between atoms: _334  and  _336
REMARK  146  A    between atoms: _336  and  _337
REMARK  147  A    between atoms: _336  and  _339
REMARK  148  A    between atoms: _339  and  _340
REMARK  149  A    between atoms: _340  and  _341
REMARK  150  A    between atoms: _341  and  _342
REMARK  151  A    between atoms: _342  and  _343
REMARK  152  A    between atoms: _347  and  _349
REMARK  153  A    between atoms: _349  and  _350
REMARK  154  A    between atoms: _349  and  _352
REMARK  155  A    between atoms: _352  and  _353
REMARK  156  A    between atoms: _358  and  _360
REMARK  157  A    between atoms: _360  and  _361
REMARK  158  A    between atoms: _360  and  _363
REMARK  159  A    between atoms: _363  and  _364
REMARK  160  A    between atoms: _367  and  _369
REMARK  161  A    between atoms: _369  and  _370
REMARK  162  A    between atoms: _369  and  _372
REMARK  163  A    between atoms: _372  and  _373
REMARK  164  A    between atoms: _383  and  _385
REMARK  165  A    between atoms: _385  and  _386
REMARK  166  A    between atoms: _385  and  _388
REMARK  167  A    between atoms: _388  and  _389
REMARK  168  A    between atoms: _389  and  _390
REMARK  169  A    between atoms: _390  and  _391
REMARK  170  A    between atoms: _391  and  _392
REMARK  171  A    between atoms: _397  and  _398
REMARK  172  A    between atoms: _403  and  _405
REMARK  173  A    between atoms: _405  and  _406
REMARK  174  A    between atoms: _409  and  _411
REMARK  175  A    between atoms: _411  and  _412
REMARK  176  A    between atoms: _411  and  _414
REMARK  177  A    between atoms: _417  and  _419
REMARK  178  A    between atoms: _419  and  _420
REMARK  179  A    between atoms: _419  and  _422
REMARK  180  A    between atoms: _422  and  _423
REMARK  181  A    between atoms: _423  and  _424
REMARK  182  A    between atoms: _427  and  _429
REMARK  183  A    between atoms: _429  and  _430
REMARK  184  A    between atoms: _433  and  _435
REMARK  185  A    between atoms: _435  and  _436
REMARK  186  A    between atoms: _435  and  _438
REMARK  187  A    between atoms: _438  and  _439
REMARK  188  A    between atoms: _444  and  _445
REMARK  189  A    between atoms: _447  and  _449
REMARK  190  A    between atoms: _449  and  _450
REMARK  191  A    between atoms: _452  and  _454
REMARK  192  A    between atoms: _454  and  _455
REMARK  193  A    between atoms: _454  and  _457
REMARK  194  A    between atoms: _457  and  _458
REMARK  195  A    between atoms: _458  and  _459
REMARK  196  A    between atoms: _462  and  _464
REMARK  197  A    between atoms: _464  and  _465
REMARK  198  A    between atoms: _464  and  _467
REMARK  199  A    between atoms: _467  and  _468
REMARK  200  A    between atoms: _474  and  _476
REMARK  201  A    between atoms: _476  and  _477
REMARK  202  A    between atoms: _476  and  _479
REMARK  203  A    between atoms: _479  and  _480
REMARK  204  A    between atoms: _483  and  _485
REMARK  205  A    between atoms: _485  and  _486
REMARK  206  A    between atoms: _485  and  _488
REMARK  207  A    between atoms: _488  and  _489
REMARK  208  A    between atoms: _489  and  _490
REMARK  209  A    between atoms: _492  and  _494
REMARK  210  A    between atoms: _494  and  _495
REMARK  211  A    between atoms: _494  and  _497
REMARK  212  A    between atoms: _497  and  _498
REMARK  213  A    between atoms: _504  and  _506
REMARK  214  A    between atoms: _506  and  _507
REMARK  215  A    between atoms: _506  and  _509
REMARK  216  A    between atoms: _509  and  _510
REMARK  217  A    between atoms: _510  and  _511
REMARK  218  A    between atoms: _514  and  _516
REMARK  219  A    between atoms: _516  and  _517
REMARK  220  A    between atoms: _516  and  _519
REMARK  221  A    between atoms: _519  and  _520
REMARK  222  A    between atoms: _523  and  _525
REMARK  223  A    between atoms: _525  and  _526
REMARK  224  A    between atoms: _525  and  _528
REMARK  225  A    between atoms: _528  and  _529
REMARK  226  A    between atoms: _532  and  _534
REMARK  227  A    between atoms: _534  and  _535
REMARK  228  A    between atoms: _534  and  _537
REMARK  229  A    between atoms: _537  and  _538
REMARK  230  A    between atoms: _544  and  _546
REMARK  231  A    between atoms: _546  and  _547
REMARK  232  A    between atoms: _546  and  _549
REMARK  233  A    between atoms: _552  and  _554
REMARK  234  A    between atoms: _554  and  _555
REMARK  235  A    between atoms: _559  and  _560
REMARK  236  A    between atoms: _565  and  _567
REMARK  237  A    between atoms: _567  and  _568
REMARK  238  A    between atoms: _567  and  _570
REMARK  239  A    between atoms: _570  and  _571
REMARK  240  A    between atoms: _574  and  _576
REMARK  241  A    between atoms: _576  and  _577
REMARK  242  A    between atoms: _576  and  _579
REMARK  243  A    between atoms: _579  and  _580
REMARK  244  A    between atoms: _587  and  _588
REMARK  245  A    between atoms: _593  and  _595
REMARK  246  A    between atoms: _595  and  _596
REMARK  247  A    between atoms: _595  and  _598
REMARK  248  A    between atoms: _601  and  _603
REMARK  249  A    between atoms: _603  and  _604
REMARK  250  A    between atoms: _607  and  _609
REMARK  251  A    between atoms: _609  and  _610
REMARK  252  A    between atoms: _609  and  _612
REMARK  253  A    between atoms: _612  and  _613
REMARK  254  A    between atoms: _618  and  _619
REMARK  255  A    between atoms: _621  and  _623
REMARK  256  A    between atoms: _623  and  _624
REMARK  257  A    between atoms: _623  and  _626
REMARK  258  A    between atoms: _626  and  _627
REMARK  259  A    between atoms: _632  and  _634
REMARK  260  A    between atoms: _634  and  _635
REMARK  261  A    between atoms: _634  and  _637
REMARK  262  A    between atoms: _637  and  _638
REMARK  263  A    between atoms: _641  and  _643
REMARK  264  A    between atoms: _643  and  _644
REMARK  265  A    between atoms: _643  and  _646
REMARK  266  A    between atoms: _646  and  _647
REMARK  267  A    between atoms: _650  and  _652
REMARK  268  A    between atoms: _652  and  _653
REMARK  269  A    between atoms: _652  and  _655
REMARK  270  A    between atoms: _655  and  _656
REMARK  271  A    between atoms: _656  and  _657
REMARK  272  A    between atoms: _657  and  _658
REMARK  273  A    between atoms: _658  and  _659
REMARK  274  A    between atoms: _663  and  _665
REMARK  275  A    between atoms: _665  and  _666
REMARK  276  A    between atoms: _665  and  _668
REMARK  277  A    between atoms: _668  and  _669
REMARK  278  A    between atoms: _675  and  _677
REMARK  279  A    between atoms: _677  and  _678
REMARK  280  A    between atoms: _677  and  _680
REMARK  281  A    between atoms: _680  and  _681
REMARK  282  A    between atoms: _684  and  _686
REMARK  283  A    between atoms: _686  and  _687
REMARK  284  A    between atoms: _686  and  _689
REMARK  285  A    between atoms: _689  and  _690
REMARK  286  A    between atoms: _692  and  _694
REMARK  287  A    between atoms: _694  and  _695
REMARK  288  A    between atoms: _694  and  _697
REMARK  289  A    between atoms: _697  and  _698
REMARK  290  A    between atoms: _701  and  _703
REMARK  291  A    between atoms: _703  and  _704
REMARK  292  A    between atoms: _703  and  _706
REMARK  293  A    between atoms: _706  and  _707
REMARK  294  A    between atoms: _707  and  _708
REMARK  295  A    between atoms: _708  and  _709
REMARK  296  A    between atoms: _718  and  _720
REMARK  297  A    between atoms: _720  and  _721
REMARK  298  A    between atoms: _720  and  _723
REMARK  299  A    between atoms: _723  and  _724
REMARK  300  A    between atoms: _724  and  _725
REMARK  301  A    between atoms: _725  and  _726
REMARK  302  A    between atoms: _726  and  _727
REMARK  303  A    between atoms: _731  and  _733
REMARK  304  A    between atoms: _733  and  _734
REMARK  305  A    between atoms: _733  and  _736
REMARK  306  A    between atoms: _736  and  _737
REMARK  307  A    between atoms: _740  and  _742
REMARK  308  A    between atoms: _742  and  _743
REMARK  309  A    between atoms: _742  and  _745
REMARK  310  A    between atoms: _745  and  _746
REMARK  311  A    between atoms: _746  and  _747
REMARK  312  A    between atoms: _749  and  _751
REMARK  313  A    between atoms: _751  and  _752
REMARK  314  A    between atoms: _751  and  _754
REMARK  315  A    between atoms: _757  and  _759
REMARK  316  A    between atoms: _759  and  _760
REMARK  317  A    between atoms: _759  and  _762
REMARK  318  A    between atoms: _762  and  _763
REMARK                            x       y       z     vdW  Elec       q    Type
REMARK                         _______ _______ _______ _____ _____    ______ ____
ROOT
ATOM      1  CA  PHE A   2      21.294  -5.787   4.620  0.00  0.00    +0.153 C 
ENDROOT
BRANCH   1   4
ATOM      2  C   LEU A   1      19.198  -5.630   5.854  0.00  0.00    +0.238 C 
ATOM      3  O   LEU A   1      19.730  -5.851   6.939  0.00  0.00    -0.274 OA
ATOM      4  N   PHE A   2      19.860  -5.609   4.704  0.00  0.00    -0.297 N 
ATOM      5  H   PHE A   2      19.325  -5.458   3.825  0.00  0.00    +0.150 HD
BRANCH   2   6
ATOM      6  CA  LEU A   1      17.688  -5.423   5.750  0.00  0.00    +0.145 C 
BRANCH   6   7
ATOM      7  N   LEU A   1      17.036  -6.626   6.241  0.00  0.00    -0.238 NA
ATOM      8  H   LEU A   1      17.304  -7.001   7.174  0.00  0.00    +0.142 HD
ENDBRANCH   6   7
BRANCH   6   9
ATOM      9  CB  LEU A   1      17.251  -4.188   6.545  0.00  0.00    +0.026 C 
BRANCH   9  10
ATOM     10  CG  LEU A   1      17.775  -2.836   6.079  0.00  0.00    +0.002 C 
ATOM     11  CD2 LEU A   1      19.143  -2.525   6.684  0.00  0.00    +0.000 C 
ATOM     12  CD1 LEU A   1      16.799  -1.754   6.441  0.00  0.00    +0.000 C 
ENDBRANCH   9  10
ENDBRANCH   6   9
ENDBRANCH   2   6
ENDBRANCH   1   4
BRANCH   1  13
ATOM     13  C   PHE A   2      21.976  -4.443   4.502  0.00  0.00    +0.241 C 
ATOM     14  N   VAL A   3      22.769  -4.081   5.509  0.00  0.00    -0.298 N 
ATOM     15  H   VAL A   3      22.831  -4.683   6.355  0.00  0.00    +0.150 HD
ATOM     16  O   PHE A   2      21.821  -3.748   3.490  0.00  0.00    -0.273 OA
BRANCH  14  17
ATOM     17  CA  VAL A   3      23.552  -2.851   5.442  0.00  0.00    +0.137 C 
BRANCH  17  18
ATOM     18  CB  VAL A   3      23.816  -2.262   6.839  0.00  0.00    +0.026 C 
ATOM     19  CG2 VAL A   3      22.501  -1.921   7.535  0.00  0.00    +0.002 C 
ATOM     20  CG1 VAL A   3      24.712  -1.064   6.750  0.00  0.00    +0.002 C 
ENDBRANCH  17  18
BRANCH  17  21
ATOM     21  C   VAL A   3      24.865  -3.176   4.757  0.00  0.00    +0.227 C 
ATOM     22  O   VAL A   3      25.598  -4.043   5.227  0.00  0.00    -0.286 OA
ENDBRANCH  17  21
ENDBRANCH  14  17
ENDBRANCH   1  13
BRANCH   1  23
ATOM     23  CB  PHE A   2      21.666  -6.648   3.413  0.00  0.00    +0.055 C 
BRANCH  23  24
ATOM     24  CG  PHE A   2      21.147  -8.071   3.484  0.00  0.00    -0.020 A 
ATOM     25  CD2 PHE A   2      21.737  -8.992   4.326  0.00  0.00    -0.004 A 
ATOM     26  CE2 PHE A   2      21.266 -10.305   4.393  0.00  0.00    -0.000 A 
ATOM     27  CZ  PHE A   2      20.201 -10.684   3.608  0.00  0.00    -0.000 A 
ATOM     28  CE1 PHE A   2      19.604  -9.770   2.768  0.00  0.00    -0.000 A 
ATOM     29  CD1 PHE A   2      20.077  -8.466   2.715  0.00  0.00    -0.004 A 
ENDBRANCH  23  24
ENDBRANCH   1  23
TORSDOF 11
REMARK  Name = ../refined-set-2016/4omk/4omk_pocket.pdb
REMARK  318 active torsions:
REMARK  status: ('A' for Active; 'I' for Inactive)
REMARK    1  A    between atoms: _1  and  _3
REMARK    2  A    between atoms: _3  and  _4
REMARK    3  A    between atoms: _3  and  _6
REMARK    4  A    between atoms: _6  and  _7
REMARK    5  A    between atoms: _10  and  _12
REMARK    6  A    between atoms: _12  and  _13
REMARK    7  A    between atoms: _12  and  _15
REMARK    8  A    between atoms: _15  and  _16
REMARK    9  A    between atoms: _21  and  _22
REMARK   10  A    between atoms: _24  and  _26
REMARK   11  A    between atoms: _26  and  _27
REMARK   12  A    between atoms: _26  and  _29
REMARK   13  A    between atoms: _29  and  _30
REMARK   14  A    between atoms: _33  and  _35
REMARK   15  A    between atoms: _35  and  _36
REMARK   16  A    between atoms: _35  and  _38
REMARK   17  A    between atoms: _38  and  _39
REMARK   18  A    between atoms: _41  and  _43
REMARK   19  A    between atoms: _43  and  _44
REMARK   20  A    between atoms: _43  and  _46
REMARK   21  A    between atoms: _46  and  _47
REMARK   22  A    between atoms: _57  and  _59
REMARK   23  A    between atoms: _59  and  _60
REMARK   24  A    between atoms: _59  and  _62
REMARK   25  A    between atoms: _62  and  _63
REMARK   26  A    between atoms: _66  and  _68
REMARK   27  A    between atoms: _68  and  _69
REMARK   28  A    between atoms: _68  and  _71
REMARK   29  A    between atoms: _71  and  _72
REMARK   30  A    between atoms: _75  and  _77
REMARK   31  A    between atoms: _77  and  _78
REMARK   32  A    between atoms: _77  and  _80
REMARK   33  A    between atoms: _80  and  _81
REMARK   34  A    between atoms: _84  and  _86
REMARK   35  A    between atoms: _86  and  _87
REMARK   36  A    between atoms: _86  and  _89
REMARK   37  A    between atoms: _89  and  _90
REMARK   38  A    between atoms: _93  and  _95
REMARK   39  A    between atoms: _95  and  _96
REMARK   40  A    between atoms: _99  and  _101
REMARK   41  A    between atoms: _101  and  _102
REMARK   42  A    between atoms: _101  and  _104
REMARK   43  A    between atoms: _104  and  _105
REMARK   44  A    between atoms: _105  and  _106
REMARK   45  A    between atoms: _106  and  _107
REMARK   46  A    between atoms: _107  and  _108
REMARK   47  A    between atoms: _112  and  _114
REMARK   48  A    between atoms: _114  and  _115
REMARK   49  A    between atoms: _117  and  _119
REMARK   50  A    between atoms: _119  and  _120
REMARK   51  A    between atoms: _119  and  _122
REMARK   52  A    between atoms: _122  and  _123
REMARK   53  A    between atoms: _126  and  _128
REMARK   54  A    between atoms: _128  and  _129
REMARK   55  A    between atoms: _128  and  _131
REMARK   56  A    between atoms: _131  and  _132
REMARK   57  A    between atoms: _135  and  _137
REMARK   58  A    between atoms: _137  and  _138
REMARK   59  A    between atoms: _137  and  _140
REMARK   60  A    between atoms: _140  and  _141
REMARK   61  A    between atoms: _147  and  _149
REMARK   62  A    between atoms: _149  and  _150
REMARK   63  A    between atoms: _149  and  _152
REMARK   64  A    between atoms: _152  and  _153
REMARK   65  A    between atoms: _155  and  _157
REMARK   66  A    between atoms: _157  and  _158
REMARK   67  A    between atoms: _157  and  _160
REMARK   68  A    between atoms: _160  and  _161
REMARK   69  A    between atoms: _161  and  _162
REMARK   70  A    between atoms: _162  and  _163
REMARK   71  A    between atoms: _163  and  _164
REMARK   72  A    between atoms: _168  and  _170
REMARK   73  A    between atoms: _170  and  _171
REMARK   74  A    between atoms: _170  and  _173
REMARK   75  A    between atoms: _173  and  _174
REMARK   76  A    between atoms: _174  and  _175
REMARK   77  A    between atoms: _180  and  _182
REMARK   78  A    between atoms: _182  and  _183
REMARK   79  A    between atoms: _182  and  _185
REMARK   80  A    between atoms: _185  and  _186
REMARK   81  A    between atoms: _189  and  _191
REMARK   82  A    between atoms: _191  and  _192
REMARK   83  A    between atoms: _191  and  _194
REMARK   84  A    between atoms: _194  and  _195
REMARK   85  A    between atoms: _198  and  _200
REMARK   86  A    between atoms: _200  and  _201
REMARK   87  A    between atoms: _200  and  _203
REMARK   88  A    between atoms: _203  and  _204
REMARK   89  A    between atoms: _207  and  _209
REMARK   90  A    between atoms: _209  and  _210
REMARK   91  A    between atoms: _209  and  _212
REMARK   92  A    between atoms: _212  and  _213
REMARK   93  A    between atoms: _213  and  _214
REMARK   94  A    between atoms: _214  and  _215
REMARK   95  A    between atoms: _224  and  _226
REMARK   96  A    between atoms: _226  and  _227
REMARK   97  A    between atoms: _226  and  _229
REMARK   98  A    between atoms: _229  and  _230
REMARK   99  A    between atoms: _233  and  _235
REMARK  100  A    between atoms: _235  and  _236
REMARK  101  A    between atoms: _235  and  _238
REMARK  102  A    between atoms: _238  and  _239
REMARK  103  A    between atoms: _239  and  _240
REMARK  104  A    between atoms: _240  and  _241
REMARK  105  A    between atoms: _241  and  _242
REMARK  106  A    between atoms: _246  and  _248
REMARK  107  A    between atoms: _248  and  _249
REMARK  108  A    between atoms: _248  and  _251
REMARK  109  A    between atoms: _251  and  _252
REMARK  110  A    between atoms: _252  and  _253
REMARK  111  A    between atoms: _255  and  _257
REMARK  112  A    between atoms: _257  and  _258
REMARK  113  A    between atoms: _257  and  _260
REMARK  114  A    between atoms: _260  and  _261
REMARK  115  A    between atoms: _261  and  _262
REMARK  116  A    between atoms: _265  and  _267
REMARK  117  A    between atoms: _267  and  _268
REMARK  118  A    between atoms: _267  and  _270
REMARK  119  A    between atoms: _272  and  _274
REMARK  120  A    between atoms: _274  and  _275
REMARK  121  A    between atoms: _274  and  _277
REMARK  122  A    between atoms: _277  and  _278
REMARK  123  A    between atoms: _281  and  _283
REMARK  124  A    between atoms: _283  and  _284
REMARK  125  A    between atoms: _283  and  _286
REMARK  126  A    between atoms: _286  and  _287
REMARK  127  A    between atoms: _290  and  _292
REMARK  128  A    between atoms: _292  and  _293
REMARK  129  A    between atoms: _292  and  _295
REMARK  130  A    between atoms: _295  and  _296
REMARK  131  A    between atoms: _301  and  _302
REMARK  132  A    between atoms: _304  and  _306
REMARK  133  A    between atoms: _306  and  _307
REMARK  134  A    between atoms: _306  and  _309
REMARK  135  A    between atoms: _309  and  _310
REMARK  136  A    between atoms: _313  and  _315
REMARK  137  A    between atoms: _315  and  _316
REMARK  138  A    between atoms: _315  and  _318
REMARK  139  A    between atoms: _320  and  _322
REMARK  140  A    between atoms: _322  and  _323
REMARK  141  A    between atoms: _322  and  _325
REMARK  142  A    between atoms: _325  and  _326
REMARK  143  A    between atoms: _329  and  _331
REMARK  144  A    between atoms: _331  and  _332
REMARK  145  A    between atoms: _334  and  _336
REMARK  146  A    between atoms: _336  and  _337
REMARK  147  A    between atoms: _336  and  _339
REMARK  148  A    between atoms: _339  and  _340
REMARK  149  A    between atoms: _340  and  _341
REMARK  150  A    between atoms: _341  and  _342
REMARK  151  A    between atoms: _342  and  _343
REMARK  152  A    between atoms: _347  and  _349
REMARK  153  A    between atoms: _349  and  _350
REMARK  154  A    between atoms: _349  and  _352
REMARK  155  A    between atoms: _352  and  _353
REMARK  156  A    between atoms: _358  and  _360
REMARK  157  A    between atoms: _360  and  _361
REMARK  158  A    between atoms: _360  and  _363
REMARK  159  A    between atoms: _363  and  _364
REMARK  160  A    between atoms: _367  and  _369
REMARK  161  A    between atoms: _369  and  _370
REMARK  162  A    between atoms: _369  and  _372
REMARK  163  A    between atoms: _372  and  _373
REMARK  164  A    between atoms: _383  and  _385
REMARK  165  A    between atoms: _385  and  _386
REMARK  166  A    between atoms: _385  and  _388
REMARK  167  A    between atoms: _388  and  _389
REMARK  168  A    between atoms: _389  and  _390
REMARK  169  A    between atoms: _390  and  _391
REMARK  170  A    between atoms: _391  and  _392
REMARK  171  A    between atoms: _397  and  _398
REMARK  172  A    between atoms: _403  and  _405
REMARK  173  A    between atoms: _405  and  _406
REMARK  174  A    between atoms: _409  and  _411
REMARK  175  A    between atoms: _411  and  _412
REMARK  176  A    between atoms: _411  and  _414
REMARK  177  A    between atoms: _417  and  _419
REMARK  178  A    between atoms: _419  and  _420
REMARK  179  A    between atoms: _419  and  _422
REMARK  180  A    between atoms: _422  and  _423
REMARK  181  A    between atoms: _423  and  _424
REMARK  182  A    between atoms: _427  and  _429
REMARK  183  A    between atoms: _429  and  _430
REMARK  184  A    between atoms: _433  and  _435
REMARK  185  A    between atoms: _435  and  _436
REMARK  186  A    between atoms: _435  and  _438
REMARK  187  A    between atoms: _438  and  _439
REMARK  188  A    between atoms: _444  and  _445
REMARK  189  A    between atoms: _447  and  _449
REMARK  190  A    between atoms: _449  and  _450
REMARK  191  A    between atoms: _452  and  _454
REMARK  192  A    between atoms: _454  and  _455
REMARK  193  A    between atoms: _454  and  _457
REMARK  194  A    between atoms: _457  and  _458
REMARK  195  A    between atoms: _458  and  _459
REMARK  196  A    between atoms: _462  and  _464
REMARK  197  A    between atoms: _464  and  _465
REMARK  198  A    between atoms: _464  and  _467
REMARK  199  A    between atoms: _467  and  _468
REMARK  200  A    between atoms: _474  and  _476
REMARK  201  A    between atoms: _476  and  _477
REMARK  202  A    between atoms: _476  and  _479
REMARK  203  A    between atoms: _479  and  _480
REMARK  204  A    between atoms: _483  and  _485
REMARK  205  A    between atoms: _485  and  _486
REMARK  206  A    between atoms: _485  and  _488
REMARK  207  A    between atoms: _488  and  _489
REMARK  208  A    between atoms: _489  and  _490
REMARK  209  A    between atoms: _492  and  _494
REMARK  210  A    between atoms: _494  and  _495
REMARK  211  A    between atoms: _494  and  _497
REMARK  212  A    between atoms: _497  and  _498
REMARK  213  A    between atoms: _504  and  _506
REMARK  214  A    between atoms: _506  and  _507
REMARK  215  A    between atoms: _506  and  _509
REMARK  216  A    between atoms: _509  and  _510
REMARK  217  A    between atoms: _510  and  _511
REMARK  218  A    between atoms: _514  and  _516
REMARK  219  A    between atoms: _516  and  _517
REMARK  220  A    between atoms: _516  and  _519
REMARK  221  A    between atoms: _519  and  _520
REMARK  222  A    between atoms: _523  and  _525
REMARK  223  A    between atoms: _525  and  _526
REMARK  224  A    between atoms: _525  and  _528
REMARK  225  A    between atoms: _528  and  _529
REMARK  226  A    between atoms: _532  and  _534
REMARK  227  A    between atoms: _534  and  _535
REMARK  228  A    between atoms: _534  and  _537
REMARK  229  A    between atoms: _537  and  _538
REMARK  230  A    between atoms: _544  and  _546
REMARK  231  A    between atoms: _546  and  _547
REMARK  232  A    between atoms: _546  and  _549
REMARK  233  A    between atoms: _552  and  _554
REMARK  234  A    between atoms: _554  and  _555
REMARK  235  A    between atoms: _559  and  _560
REMARK  236  A    between atoms: _565  and  _567
REMARK  237  A    between atoms: _567  and  _568
REMARK  238  A    between atoms: _567  and  _570
REMARK  239  A    between atoms: _570  and  _571
REMARK  240  A    between atoms: _574  and  _576
REMARK  241  A    between atoms: _576  and  _577
REMARK  242  A    between atoms: _576  and  _579
REMARK  243  A    between atoms: _579  and  _580
REMARK  244  A    between atoms: _587  and  _588
REMARK  245  A    between atoms: _593  and  _595
REMARK  246  A    between atoms: _595  and  _596
REMARK  247  A    between atoms: _595  and  _598
REMARK  248  A    between atoms: _601  and  _603
REMARK  249  A    between atoms: _603  and  _604
REMARK  250  A    between atoms: _607  and  _609
REMARK  251  A    between atoms: _609  and  _610
REMARK  252  A    between atoms: _609  and  _612
REMARK  253  A    between atoms: _612  and  _613
REMARK  254  A    between atoms: _618  and  _619
REMARK  255  A    between atoms: _621  and  _623
REMARK  256  A    between atoms: _623  and  _624
REMARK  257  A    between atoms: _623  and  _626
REMARK  258  A    between atoms: _626  and  _627
REMARK  259  A    between atoms: _632  and  _634
REMARK  260  A    between atoms: _634  and  _635
REMARK  261  A    between atoms: _634  and  _637
REMARK  262  A    between atoms: _637  and  _638
REMARK  263  A    between atoms: _641  and  _643
REMARK  264  A    between atoms: _643  and  _644
REMARK  265  A    between atoms: _643  and  _646
REMARK  266  A    between atoms: _646  and  _647
REMARK  267  A    between atoms: _650  and  _652
REMARK  268  A    between atoms: _652  and  _653
REMARK  269  A    between atoms: _652  and  _655
REMARK  270  A    between atoms: _655  and  _656
REMARK  271  A    between atoms: _656  and  _657
REMARK  272  A    between atoms: _657  and  _658
REMARK  273  A    between atoms: _658  and  _659
REMARK  274  A    between atoms: _663  and  _665
REMARK  275  A    between atoms: _665  and  _666
REMARK  276  A    between atoms: _665  and  _668
REMARK  277  A    between atoms: _668  and  _669
REMARK  278  A    between atoms: _675  and  _677
REMARK  279  A    between atoms: _677  and  _678
REMARK  280  A    between atoms: _677  and  _680
REMARK  281  A    between atoms: _680  and  _681
REMARK  282  A    between atoms: _684  and  _686
REMARK  283  A    between atoms: _686  and  _687
REMARK  284  A    between atoms: _686  and  _689
REMARK  285  A    between atoms: _689  and  _690
REMARK  286  A    between atoms: _692  and  _694
REMARK  287  A    between atoms: _694  and  _695
REMARK  288  A    between atoms: _694  and  _697
REMARK  289  A    between atoms: _697  and  _698
REMARK  290  A    between atoms: _701  and  _703
REMARK  291  A    between atoms: _703  and  _704
REMARK  292  A    between atoms: _703  and  _706
REMARK  293  A    between atoms: _706  and  _707
REMARK  294  A    between atoms: _707  and  _708
REMARK  295  A    between atoms: _708  and  _709
REMARK  296  A    between atoms: _718  and  _720
REMARK  297  A    between atoms: _720  and  _721
REMARK  298  A    between atoms: _720  and  _723
REMARK  299  A    between atoms: _723  and  _724
REMARK  300  A    between atoms: _724  and  _725
REMARK  301  A    between atoms: _725  and  _726
REMARK  302  A    between atoms: _726  and  _727
REMARK  303  A    between atoms: _731  and  _733
REMARK  304  A    between atoms: _733  and  _734
REMARK  305  A    between atoms: _733  and  _736
REMARK  306  A    between atoms: _736  and  _737
REMARK  307  A    between atoms: _740  and  _742
REMARK  308  A    between atoms: _742  and  _743
REMARK  309  A    between atoms: _742  and  _745
REMARK  310  A    between atoms: _745  and  _746
REMARK  311  A    between atoms: _746  and  _747
REMARK  312  A    between atoms: _749  and  _751
REMARK  313  A    between atoms: _751  and  _752
REMARK  314  A    between atoms: _751  and  _754
REMARK  315  A    between atoms: _757  and  _759
REMARK  316  A    between atoms: _759  and  _760
REMARK  317  A    between atoms: _759  and  _762
REMARK  318  A    between atoms: _762  and  _763
REMARK                            x       y       z     vdW  Elec       q    Type
REMARK                         _______ _______ _______ _____ _____    ______ ____
ROOT
ATOM      1  C   ALA A   1      30.326   1.434   6.515  0.00  0.00    +0.241 C 
ATOM      2  O   ALA A   1      31.214   0.607   6.736  0.00  0.00    -0.273 OA
ATOM      3  N   PRO A   2      30.515   2.752   6.621  0.00  0.00    -0.273 N 
ATOM      4  CA  PRO A   2      31.767   3.334   7.139  0.00  0.00    +0.140 C 
ATOM      5  CB  PRO A   2      31.753   4.735   6.555  0.00  0.00    +0.030 C 
ATOM      6  CG  PRO A   2      30.296   5.095   6.592  0.00  0.00    +0.024 C 
ATOM      7  CD  PRO A   2      29.541   3.810   6.293  0.00  0.00    +0.094 C 
ENDROOT
BRANCH   1   8
ATOM      8  CA  ALA A   1      28.936   0.951   6.101  0.00  0.00    +0.145 C 
ATOM      9  CB  ALA A   1      28.245   0.328   7.279  0.00  0.00    +0.028 C 
BRANCH   8  10
ATOM     10  N   ALA A   1      29.057  -0.005   4.999  0.00  0.00    -0.238 NA
ATOM     11  H   ALA A   1      28.808  -1.002   5.159  0.00  0.00    +0.142 HD
ENDBRANCH   8  10
ENDBRANCH   1   8
BRANCH   4  12
ATOM     12  C   PRO A   2      31.772   3.381   8.664  0.00  0.00    +0.227 C 
ATOM     13  O   PRO A   2      30.813   2.958   9.318  0.00  0.00    -0.286 OA
ENDBRANCH   4  12
TORSDOF 3
REMARK  Name = ../refined-set-2016/4omk/4omk_pocket.pdb
REMARK  318 active torsions:
REMARK  status: ('A' for Active; 'I' for Inactive)
REMARK    1  A    between atoms: _1  and  _3
REMARK    2  A    between atoms: _3  and  _4
REMARK    3  A    between atoms: _3  and  _6
REMARK    4  A    between atoms: _6  and  _7
REMARK    5  A    between atoms: _10  and  _12
REMARK    6  A    between atoms: _12  and  _13
REMARK    7  A    between atoms: _12  and  _15
REMARK    8  A    between atoms: _15  and  _16
REMARK    9  A    between atoms: _21  and  _22
REMARK   10  A    between atoms: _24  and  _26
REMARK   11  A    between atoms: _26  and  _27
REMARK   12  A    between atoms: _26  and  _29
REMARK   13  A    between atoms: _29  and  _30
REMARK   14  A    between atoms: _33  and  _35
REMARK   15  A    between atoms: _35  and  _36
REMARK   16  A    between atoms: _35  and  _38
REMARK   17  A    between atoms: _38  and  _39
REMARK   18  A    between atoms: _41  and  _43
REMARK   19  A    between atoms: _43  and  _44
REMARK   20  A    between atoms: _43  and  _46
REMARK   21  A    between atoms: _46  and  _47
REMARK   22  A    between atoms: _57  and  _59
REMARK   23  A    between atoms: _59  and  _60
REMARK   24  A    between atoms: _59  and  _62
REMARK   25  A    between atoms: _62  and  _63
REMARK   26  A    between atoms: _66  and  _68
REMARK   27  A    between atoms: _68  and  _69
REMARK   28  A    between atoms: _68  and  _71
REMARK   29  A    between atoms: _71  and  _72
REMARK   30  A    between atoms: _75  and  _77
REMARK   31  A    between atoms: _77  and  _78
REMARK   32  A    between atoms: _77  and  _80
REMARK   33  A    between atoms: _80  and  _81
REMARK   34  A    between atoms: _84  and  _86
REMARK   35  A    between atoms: _86  and  _87
REMARK   36  A    between atoms: _86  and  _89
REMARK   37  A    between atoms: _89  and  _90
REMARK   38  A    between atoms: _93  and  _95
REMARK   39  A    between atoms: _95  and  _96
REMARK   40  A    between atoms: _99  and  _101
REMARK   41  A    between atoms: _101  and  _102
REMARK   42  A    between atoms: _101  and  _104
REMARK   43  A    between atoms: _104  and  _105
REMARK   44  A    between atoms: _105  and  _106
REMARK   45  A    between atoms: _106  and  _107
REMARK   46  A    between atoms: _107  and  _108
REMARK   47  A    between atoms: _112  and  _114
REMARK   48  A    between atoms: _114  and  _115
REMARK   49  A    between atoms: _117  and  _119
REMARK   50  A    between atoms: _119  and  _120
REMARK   51  A    between atoms: _119  and  _122
REMARK   52  A    between atoms: _122  and  _123
REMARK   53  A    between atoms: _126  and  _128
REMARK   54  A    between atoms: _128  and  _129
REMARK   55  A    between atoms: _128  and  _131
REMARK   56  A    between atoms: _131  and  _132
REMARK   57  A    between atoms: _135  and  _137
REMARK   58  A    between atoms: _137  and  _138
REMARK   59  A    between atoms: _137  and  _140
REMARK   60  A    between atoms: _140  and  _141
REMARK   61  A    between atoms: _147  and  _149
REMARK   62  A    between atoms: _149  and  _150
REMARK   63  A    between atoms: _149  and  _152
REMARK   64  A    between atoms: _152  and  _153
REMARK   65  A    between atoms: _155  and  _157
REMARK   66  A    between atoms: _157  and  _158
REMARK   67  A    between atoms: _157  and  _160
REMARK   68  A    between atoms: _160  and  _161
REMARK   69  A    between atoms: _161  and  _162
REMARK   70  A    between atoms: _162  and  _163
REMARK   71  A    between atoms: _163  and  _164
REMARK   72  A    between atoms: _168  and  _170
REMARK   73  A    between atoms: _170  and  _171
REMARK   74  A    between atoms: _170  and  _173
REMARK   75  A    between atoms: _173  and  _174
REMARK   76  A    between atoms: _174  and  _175
REMARK   77  A    between atoms: _180  and  _182
REMARK   78  A    between atoms: _182  and  _183
REMARK   79  A    between atoms: _182  and  _185
REMARK   80  A    between atoms: _185  and  _186
REMARK   81  A    between atoms: _189  and  _191
REMARK   82  A    between atoms: _191  and  _192
REMARK   83  A    between atoms: _191  and  _194
REMARK   84  A    between atoms: _194  and  _195
REMARK   85  A    between atoms: _198  and  _200
REMARK   86  A    between atoms: _200  and  _201
REMARK   87  A    between atoms: _200  and  _203
REMARK   88  A    between atoms: _203  and  _204
REMARK   89  A    between atoms: _207  and  _209
REMARK   90  A    between atoms: _209  and  _210
REMARK   91  A    between atoms: _209  and  _212
REMARK   92  A    between atoms: _212  and  _213
REMARK   93  A    between atoms: _213  and  _214
REMARK   94  A    between atoms: _214  and  _215
REMARK   95  A    between atoms: _224  and  _226
REMARK   96  A    between atoms: _226  and  _227
REMARK   97  A    between atoms: _226  and  _229
REMARK   98  A    between atoms: _229  and  _230
REMARK   99  A    between atoms: _233  and  _235
REMARK  100  A    between atoms: _235  and  _236
REMARK  101  A    between atoms: _235  and  _238
REMARK  102  A    between atoms: _238  and  _239
REMARK  103  A    between atoms: _239  and  _240
REMARK  104  A    between atoms: _240  and  _241
REMARK  105  A    between atoms: _241  and  _242
REMARK  106  A    between atoms: _246  and  _248
REMARK  107  A    between atoms: _248  and  _249
REMARK  108  A    between atoms: _248  and  _251
REMARK  109  A    between atoms: _251  and  _252
REMARK  110  A    between atoms: _252  and  _253
REMARK  111  A    between atoms: _255  and  _257
REMARK  112  A    between atoms: _257  and  _258
REMARK  113  A    between atoms: _257  and  _260
REMARK  114  A    between atoms: _260  and  _261
REMARK  115  A    between atoms: _261  and  _262
REMARK  116  A    between atoms: _265  and  _267
REMARK  117  A    between atoms: _267  and  _268
REMARK  118  A    between atoms: _267  and  _270
REMARK  119  A    between atoms: _272  and  _274
REMARK  120  A    between atoms: _274  and  _275
REMARK  121  A    between atoms: _274  and  _277
REMARK  122  A    between atoms: _277  and  _278
REMARK  123  A    between atoms: _281  and  _283
REMARK  124  A    between atoms: _283  and  _284
REMARK  125  A    between atoms: _283  and  _286
REMARK  126  A    between atoms: _286  and  _287
REMARK  127  A    between atoms: _290  and  _292
REMARK  128  A    between atoms: _292  and  _293
REMARK  129  A    between atoms: _292  and  _295
REMARK  130  A    between atoms: _295  and  _296
REMARK  131  A    between atoms: _301  and  _302
REMARK  132  A    between atoms: _304  and  _306
REMARK  133  A    between atoms: _306  and  _307
REMARK  134  A    between atoms: _306  and  _309
REMARK  135  A    between atoms: _309  and  _310
REMARK  136  A    between atoms: _313  and  _315
REMARK  137  A    between atoms: _315  and  _316
REMARK  138  A    between atoms: _315  and  _318
REMARK  139  A    between atoms: _320  and  _322
REMARK  140  A    between atoms: _322  and  _323
REMARK  141  A    between atoms: _322  and  _325
REMARK  142  A    between atoms: _325  and  _326
REMARK  143  A    between atoms: _329  and  _331
REMARK  144  A    between atoms: _331  and  _332
REMARK  145  A    between atoms: _334  and  _336
REMARK  146  A    between atoms: _336  and  _337
REMARK  147  A    between atoms: _336  and  _339
REMARK  148  A    between atoms: _339  and  _340
REMARK  149  A    between atoms: _340  and  _341
REMARK  150  A    between atoms: _341  and  _342
REMARK  151  A    between atoms: _342  and  _343
REMARK  152  A    between atoms: _347  and  _349
REMARK  153  A    between atoms: _349  and  _350
REMARK  154  A    between atoms: _349  and  _352
REMARK  155  A    between atoms: _352  and  _353
REMARK  156  A    between atoms: _358  and  _360
REMARK  157  A    between atoms: _360  and  _361
REMARK  158  A    between atoms: _360  and  _363
REMARK  159  A    between atoms: _363  and  _364
REMARK  160  A    between atoms: _367  and  _369
REMARK  161  A    between atoms: _369  and  _370
REMARK  162  A    between atoms: _369  and  _372
REMARK  163  A    between atoms: _372  and  _373
REMARK  164  A    between atoms: _383  and  _385
REMARK  165  A    between atoms: _385  and  _386
REMARK  166  A    between atoms: _385  and  _388
REMARK  167  A    between atoms: _388  and  _389
REMARK  168  A    between atoms: _389  and  _390
REMARK  169  A    between atoms: _390  and  _391
REMARK  170  A    between atoms: _391  and  _392
REMARK  171  A    between atoms: _397  and  _398
REMARK  172  A    between atoms: _403  and  _405
REMARK  173  A    between atoms: _405  and  _406
REMARK  174  A    between atoms: _409  and  _411
REMARK  175  A    between atoms: _411  and  _412
REMARK  176  A    between atoms: _411  and  _414
REMARK  177  A    between atoms: _417  and  _419
REMARK  178  A    between atoms: _419  and  _420
REMARK  179  A    between atoms: _419  and  _422
REMARK  180  A    between atoms: _422  and  _423
REMARK  181  A    between atoms: _423  and  _424
REMARK  182  A    between atoms: _427  and  _429
REMARK  183  A    between atoms: _429  and  _430
REMARK  184  A    between atoms: _433  and  _435
REMARK  185  A    between atoms: _435  and  _436
REMARK  186  A    between atoms: _435  and  _438
REMARK  187  A    between atoms: _438  and  _439
REMARK  188  A    between atoms: _444  and  _445
REMARK  189  A    between atoms: _447  and  _449
REMARK  190  A    between atoms: _449  and  _450
REMARK  191  A    between atoms: _452  and  _454
REMARK  192  A    between atoms: _454  and  _455
REMARK  193  A    between atoms: _454  and  _457
REMARK  194  A    between atoms: _457  and  _458
REMARK  195  A    between atoms: _458  and  _459
REMARK  196  A    between atoms: _462  and  _464
REMARK  197  A    between atoms: _464  and  _465
REMARK  198  A    between atoms: _464  and  _467
REMARK  199  A    between atoms: _467  and  _468
REMARK  200  A    between atoms: _474  and  _476
REMARK  201  A    between atoms: _476  and  _477
REMARK  202  A    between atoms: _476  and  _479
REMARK  203  A    between atoms: _479  and  _480
REMARK  204  A    between atoms: _483  and  _485
REMARK  205  A    between atoms: _485  and  _486
REMARK  206  A    between atoms: _485  and  _488
REMARK  207  A    between atoms: _488  and  _489
REMARK  208  A    between atoms: _489  and  _490
REMARK  209  A    between atoms: _492  and  _494
REMARK  210  A    between atoms: _494  and  _495
REMARK  211  A    between atoms: _494  and  _497
REMARK  212  A    between atoms: _497  and  _498
REMARK  213  A    between atoms: _504  and  _506
REMARK  214  A    between atoms: _506  and  _507
REMARK  215  A    between atoms: _506  and  _509
REMARK  216  A    between atoms: _509  and  _510
REMARK  217  A    between atoms: _510  and  _511
REMARK  218  A    between atoms: _514  and  _516
REMARK  219  A    between atoms: _516  and  _517
REMARK  220  A    between atoms: _516  and  _519
REMARK  221  A    between atoms: _519  and  _520
REMARK  222  A    between atoms: _523  and  _525
REMARK  223  A    between atoms: _525  and  _526
REMARK  224  A    between atoms: _525  and  _528
REMARK  225  A    between atoms: _528  and  _529
REMARK  226  A    between atoms: _532  and  _534
REMARK  227  A    between atoms: _534  and  _535
REMARK  228  A    between atoms: _534  and  _537
REMARK  229  A    between atoms: _537  and  _538
REMARK  230  A    between atoms: _544  and  _546
REMARK  231  A    between atoms: _546  and  _547
REMARK  232  A    between atoms: _546  and  _549
REMARK  233  A    between atoms: _552  and  _554
REMARK  234  A    between atoms: _554  and  _555
REMARK  235  A    between atoms: _559  and  _560
REMARK  236  A    between atoms: _565  and  _567
REMARK  237  A    between atoms: _567  and  _568
REMARK  238  A    between atoms: _567  and  _570
REMARK  239  A    between atoms: _570  and  _571
REMARK  240  A    between atoms: _574  and  _576
REMARK  241  A    between atoms: _576  and  _577
REMARK  242  A    between atoms: _576  and  _579
REMARK  243  A    between atoms: _579  and  _580
REMARK  244  A    between atoms: _587  and  _588
REMARK  245  A    between atoms: _593  and  _595
REMARK  246  A    between atoms: _595  and  _596
REMARK  247  A    between atoms: _595  and  _598
REMARK  248  A    between atoms: _601  and  _603
REMARK  249  A    between atoms: _603  and  _604
REMARK  250  A    between atoms: _607  and  _609
REMARK  251  A    between atoms: _609  and  _610
REMARK  252  A    between atoms: _609  and  _612
REMARK  253  A    between atoms: _612  and  _613
REMARK  254  A    between atoms: _618  and  _619
REMARK  255  A    between atoms: _621  and  _623
REMARK  256  A    between atoms: _623  and  _624
REMARK  257  A    between atoms: _623  and  _626
REMARK  258  A    between atoms: _626  and  _627
REMARK  259  A    between atoms: _632  and  _634
REMARK  260  A    between atoms: _634  and  _635
REMARK  261  A    between atoms: _634  and  _637
REMARK  262  A    between atoms: _637  and  _638
REMARK  263  A    between atoms: _641  and  _643
REMARK  264  A    between atoms: _643  and  _644
REMARK  265  A    between atoms: _643  and  _646
REMARK  266  A    between atoms: _646  and  _647
REMARK  267  A    between atoms: _650  and  _652
REMARK  268  A    between atoms: _652  and  _653
REMARK  269  A    between atoms: _652  and  _655
REMARK  270  A    between atoms: _655  and  _656
REMARK  271  A    between atoms: _656  and  _657
REMARK  272  A    between atoms: _657  and  _658
REMARK  273  A    between atoms: _658  and  _659
REMARK  274  A    between atoms: _663  and  _665
REMARK  275  A    between atoms: _665  and  _666
REMARK  276  A    between atoms: _665  and  _668
REMARK  277  A    between atoms: _668  and  _669
REMARK  278  A    between atoms: _675  and  _677
REMARK  279  A    between atoms: _677  and  _678
REMARK  280  A    between atoms: _677  and  _680
REMARK  281  A    between atoms: _680  and  _681
REMARK  282  A    between atoms: _684  and  _686
REMARK  283  A    between atoms: _686  and  _687
REMARK  284  A    between atoms: _686  and  _689
REMARK  285  A    between atoms: _689  and  _690
REMARK  286  A    between atoms: _692  and  _694
REMARK  287  A    between atoms: _694  and  _695
REMARK  288  A    between atoms: _694  and  _697
REMARK  289  A    between atoms: _697  and  _698
REMARK  290  A    between atoms: _701  and  _703
REMARK  291  A    between atoms: _703  and  _704
REMARK  292  A    between atoms: _703  and  _706
REMARK  293  A    between atoms: _706  and  _707
REMARK  294  A    between atoms: _707  and  _708
REMARK  295  A    between atoms: _708  and  _709
REMARK  296  A    between atoms: _718  and  _720
REMARK  297  A    between atoms: _720  and  _721
REMARK  298  A    between atoms: _720  and  _723
REMARK  299  A    between atoms: _723  and  _724
REMARK  300  A    between atoms: _724  and  _725
REMARK  301  A    between atoms: _725  and  _726
REMARK  302  A    between atoms: _726  and  _727
REMARK  303  A    between atoms: _731  and  _733
REMARK  304  A    between atoms: _733  and  _734
REMARK  305  A    between atoms: _733  and  _736
REMARK  306  A    between atoms: _736  and  _737
REMARK  307  A    between atoms: _740  and  _742
REMARK  308  A    between atoms: _742  and  _743
REMARK  309  A    between atoms: _742  and  _745
REMARK  310  A    between atoms: _745  and  _746
REMARK  311  A    between atoms: _746  and  _747
REMARK  312  A    between atoms: _749  and  _751
REMARK  313  A    between atoms: _751  and  _752
REMARK  314  A    between atoms: _751  and  _754
REMARK  315  A    between atoms: _757  and  _759
REMARK  316  A    between atoms: _759  and  _760
REMARK  317  A    between atoms: _759  and  _762
REMARK  318  A    between atoms: _762  and  _763
REMARK                            x       y       z     vdW  Elec       q    Type
REMARK                         _______ _______ _______ _____ _____    ______ ____
ROOT
ATOM      1  CA  TYR A   6      22.336   3.731  13.815  0.00  0.00    +0.153 C 
ENDROOT
BRANCH   1   4
ATOM      2  C   ALA A   5      22.992   6.023  13.346  0.00  0.00    +0.241 C 
ATOM      3  O   ALA A   5      21.861   6.421  13.575  0.00  0.00    -0.273 OA
ATOM      4  N   TYR A   6      23.321   4.744  13.445  0.00  0.00    -0.297 N 
ATOM      5  H   TYR A   6      24.302   4.455  13.255  0.00  0.00    +0.150 HD
BRANCH   2   6
ATOM      6  CA  ALA A   5      24.091   6.992  12.937  0.00  0.00    +0.149 C 
ATOM      7  CB  ALA A   5      24.403   6.861  11.433  0.00  0.00    +0.031 C 
BRANCH   6  10
ATOM      8  C   VAL A   4      25.287   6.843  15.040  0.00  0.00    +0.241 C 
ATOM      9  O   VAL A   4      24.299   7.192  15.669  0.00  0.00    -0.273 OA
ATOM     10  N   ALA A   5      25.291   6.743  13.718  0.00  0.00    -0.297 N 
ATOM     11  H   ALA A   5      26.171   6.481  13.230  0.00  0.00    +0.150 HD
BRANCH   8  12
ATOM     12  CA  VAL A   4      26.576   6.449  15.753  0.00  0.00    +0.149 C 
BRANCH  12  15
ATOM     13  C   PRO A   3      26.530   4.052  15.356  0.00  0.00    +0.241 C 
ATOM     14  O   PRO A   3      25.458   3.967  15.960  0.00  0.00    -0.273 OA
ATOM     15  N   VAL A   4      27.150   5.219  15.212  0.00  0.00    -0.297 N 
ATOM     16  H   VAL A   4      28.058   5.257  14.706  0.00  0.00    +0.150 HD
BRANCH  13  19
ATOM     17  C   PHE A   2      26.953   3.588  12.431  0.00  0.00    +0.244 C 
ATOM     18  N   PRO A   3      27.746   3.063  13.368  0.00  0.00    -0.272 N 
ATOM     19  CA  PRO A   3      27.142   2.808  14.683  0.00  0.00    +0.152 C 
ATOM     20  CB  PRO A   3      28.325   2.238  15.495  0.00  0.00    +0.031 C 
ATOM     21  CG  PRO A   3      29.224   1.632  14.473  0.00  0.00    +0.024 C 
ATOM     22  CD  PRO A   3      29.123   2.548  13.275  0.00  0.00    +0.094 C 
ATOM     23  O   PHE A   2      25.790   3.917  12.690  0.00  0.00    -0.273 OA
BRANCH  17  24
ATOM     24  CA  PHE A   2      27.540   3.833  11.026  0.00  0.00    +0.153 C 
BRANCH  24  27
ATOM     25  C   LEU A   1      28.968   5.704  11.621  0.00  0.00    +0.238 C 
ATOM     26  O   LEU A   1      28.090   6.159  12.362  0.00  0.00    -0.274 OA
ATOM     27  N   PHE A   2      28.837   4.533  11.007  0.00  0.00    -0.297 N 
ATOM     28  H   PHE A   2      29.649   4.111  10.513  0.00  0.00    +0.150 HD
BRANCH  25  29
ATOM     29  CA  LEU A   1      30.249   6.500  11.348  0.00  0.00    +0.145 C 
BRANCH  29  30
ATOM     30  N   LEU A   1      31.305   5.693  10.764  0.00  0.00    -0.238 NA
ATOM     31  H   LEU A   1      31.599   5.877   9.783  0.00  0.00    +0.142 HD
ENDBRANCH  29  30
BRANCH  29  32
ATOM     32  CB  LEU A   1      29.939   7.671  10.416  0.00  0.00    +0.026 C 
BRANCH  32  33
ATOM     33  CG  LEU A   1      28.902   8.686  10.862  0.00  0.00    +0.002 C 
ATOM     34  CD2 LEU A   1      29.308   9.294  12.181  0.00  0.00    +0.000 C 
ATOM     35  CD1 LEU A   1      28.724   9.766   9.790  0.00  0.00    +0.000 C 
ENDBRANCH  32  33
ENDBRANCH  29  32
ENDBRANCH  25  29
ENDBRANCH  24  27
BRANCH  24  36
ATOM     36  CB  PHE A   2      27.622   2.498  10.257  0.00  0.00    +0.055 C 
BRANCH  36  37
ATOM     37  CG  PHE A   2      26.354   1.710  10.338  0.00  0.00    -0.020 A 
ATOM     38  CD2 PHE A   2      26.203   0.714  11.289  0.00  0.00    -0.004 A 
ATOM     39  CE2 PHE A   2      25.014   0.018  11.395  0.00  0.00    -0.000 A 
ATOM     40  CZ  PHE A   2      23.944   0.335  10.562  0.00  0.00    -0.000 A 
ATOM     41  CE1 PHE A   2      24.081   1.307   9.627  0.00  0.00    -0.000 A 
ATOM     42  CD1 PHE A   2      25.282   2.012   9.518  0.00  0.00    -0.004 A 
ENDBRANCH  36  37
ENDBRANCH  24  36
ENDBRANCH  17  24
ENDBRANCH  13  19
ENDBRANCH  12  15
BRANCH  12  43
ATOM     43  CB  VAL A   4      27.610   7.602  15.672  0.00  0.00    +0.027 C 
ATOM     44  CG2 VAL A   4      28.698   7.360  16.715  0.00  0.00    +0.002 C 
ATOM     45  CG1 VAL A   4      26.960   8.959  15.848  0.00  0.00    +0.002 C 
ENDBRANCH  12  43
ENDBRANCH   8  12
ENDBRANCH   6  10
ENDBRANCH   2   6
ENDBRANCH   1   4
BRANCH   1  46
ATOM     46  C   TYR A   6      21.728   4.048  15.176  0.00  0.00    +0.241 C 
ATOM     47  N   ASN A   7      22.571   4.462  16.119  0.00  0.00    -0.297 N 
ATOM     48  H   ASN A   7      23.588   4.537  15.914  0.00  0.00    +0.150 HD
ATOM     49  O   TYR A   6      20.508   3.938  15.372  0.00  0.00    -0.273 OA
BRANCH  47  50
ATOM     50  CA  ASN A   7      22.061   4.812  17.449  0.00  0.00    +0.158 C 
BRANCH  50  51
ATOM     51  C   ASN A   7      21.103   5.990  17.434  0.00  0.00    +0.241 C 
ATOM     52  O   ASN A   7      20.193   6.052  18.260  0.00  0.00    -0.273 OA
ATOM     53  N   LEU A   8      21.292   6.917  16.502  0.00  0.00    -0.297 N 
ATOM     54  H   LEU A   8      22.104   6.841  15.856  0.00  0.00    +0.150 HD
BRANCH  53  55
ATOM     55  CA  LEU A   8      20.379   8.030  16.378  0.00  0.00    +0.149 C 
BRANCH  55  56
ATOM     56  C   LEU A   8      18.981   7.601  15.950  0.00  0.00    +0.241 C 
ATOM     57  O   LEU A   8      18.020   8.284  16.286  0.00  0.00    -0.273 OA
ATOM     58  N   ILE A   9      18.839   6.510  15.199  0.00  0.00    -0.297 N 
ATOM     59  H   ILE A   9      19.658   5.926  14.935  0.00  0.00    +0.150 HD
BRANCH  58  60
ATOM     60  CA  ILE A   9      17.481   6.165  14.759  0.00  0.00    +0.149 C 
BRANCH  60  61
ATOM     61  C   ILE A   9      16.919   4.901  15.411  0.00  0.00    +0.241 C 
ATOM     62  N   LYS A  10      17.732   4.187  16.187  0.00  0.00    -0.298 N 
ATOM     63  H   LYS A  10      18.731   4.466  16.265  0.00  0.00    +0.150 HD
ATOM     64  O   ILE A   9      15.739   4.620  15.266  0.00  0.00    -0.273 OA
BRANCH  62  65
ATOM     65  CA  LYS A  10      17.260   3.025  16.931  0.00  0.00    +0.137 C 
BRANCH  65  66
ATOM     66  C   LYS A  10      16.000   3.257  17.766  0.00  0.00    +0.227 C 
ATOM     67  O   LYS A  10      15.177   2.370  17.849  0.00  0.00    -0.286 OA
ENDBRANCH  65  66
BRANCH  65  68
ATOM     68  CB  LYS A  10      18.367   2.505  17.847  0.00  0.00    +0.028 C 
BRANCH  68  69
ATOM     69  CG  LYS A  10      18.608   1.038  17.693  0.00  0.00    -0.000 C 
BRANCH  69  70
ATOM     70  CD  LYS A  10      19.708   0.526  18.614  0.00  0.00    -0.024 C 
BRANCH  70  71
ATOM     71  CE  LYS A  10      21.033   1.176  18.302  0.00  0.00    -0.086 C 
BRANCH  71  72
ATOM     72  NZ  LYS A  10      22.259   0.249  18.355  0.00  0.00    +0.380 N 
ATOM     73  HZ1 LYS A  10      22.348  -0.152  19.310  0.00  0.00    -0.089 HD
ATOM     74  HZ2 LYS A  10      23.114   0.794  18.126  0.00  0.00    -0.089 HD
ATOM     75  HZ3 LYS A  10      22.141  -0.520  17.665  0.00  0.00    -0.089 HD
ENDBRANCH  71  72
ENDBRANCH  70  71
ENDBRANCH  69  70
ENDBRANCH  68  69
ENDBRANCH  65  68
ENDBRANCH  62  65
ENDBRANCH  60  61
BRANCH  60  76
ATOM     76  CB  ILE A   9      17.408   6.076  13.233  0.00  0.00    +0.027 C 
ATOM     77  CG2 ILE A   9      17.747   7.451  12.606  0.00  0.00    +0.002 C 
BRANCH  76  78
ATOM     78  CG1 ILE A   9      18.336   5.030  12.689  0.00  0.00    +0.002 C 
ATOM     79  CD1 ILE A   9      17.784   3.638  12.718  0.00  0.00    +0.000 C 
ENDBRANCH  76  78
ENDBRANCH  60  76
ENDBRANCH  58  60
ENDBRANCH  55  56
BRANCH  55  80
ATOM     80  CB  LEU A   8      20.894   9.058  15.386  0.00  0.00    +0.029 C 
BRANCH  80  81
ATOM     81  CG  LEU A   8      22.077   9.889  15.863  0.00  0.00    +0.002 C 
ATOM     82  CD2 LEU A   8      21.644  10.763  17.043  0.00  0.00    +0.000 C 
ATOM     83  CD1 LEU A   8      22.597  10.716  14.696  0.00  0.00    +0.000 C 
ENDBRANCH  80  81
ENDBRANCH  55  80
ENDBRANCH  53  55
ENDBRANCH  50  51
BRANCH  50  84
ATOM     84  CB  ASN A   7      23.207   5.111  18.416  0.00  0.00    +0.114 C 
BRANCH  84  85
ATOM     85  CG  ASN A   7      23.856   3.851  18.957  0.00  0.00    +0.222 C 
ATOM     86  ND2 ASN A   7      25.100   3.969  19.404  0.00  0.00    -0.329 N 
ATOM     87 HD21 ASN A   7      25.584   3.147  19.818  0.00  0.00    +0.145 HD
ATOM     88 HD22 ASN A   7      25.591   4.884  19.340  0.00  0.00    +0.145 HD
ATOM     89  OD1 ASN A   7      23.236   2.801  19.009  0.00  0.00    -0.275 OA
ENDBRANCH  84  85
ENDBRANCH  50  84
ENDBRANCH  47  50
ENDBRANCH   1  46
BRANCH   1  90
ATOM     90  CB  TYR A   6      23.019   2.359  13.815  0.00  0.00    +0.055 C 
BRANCH  90  91
ATOM     91  CG  TYR A   6      22.154   1.124  13.924  0.00  0.00    -0.020 A 
ATOM     92  CD2 TYR A   6      22.746  -0.117  14.092  0.00  0.00    -0.001 A 
ATOM     93  CE2 TYR A   6      21.997  -1.266  14.192  0.00  0.00    +0.036 A 
ATOM     94  CZ  TYR A   6      20.633  -1.199  14.111  0.00  0.00    +0.134 A 
ATOM     95  CE1 TYR A   6      20.008   0.018  13.934  0.00  0.00    +0.036 A 
ATOM     96  CD1 TYR A   6      20.775   1.180  13.839  0.00  0.00    -0.001 A 
BRANCH  94  97
ATOM     97  OH  TYR A   6      19.901  -2.364  14.210  0.00  0.00    -0.506 OA
ATOM     98  HH  TYR A   6      20.164  -2.981  13.482  0.00  0.00    +0.292 HD
ENDBRANCH  94  97
ENDBRANCH  90  91
ENDBRANCH   1  90
TORSDOF 38
REMARK  Name = ../refined-set-2016/4omk/4omk_pocket.pdb
REMARK  318 active torsions:
REMARK  status: ('A' for Active; 'I' for Inactive)
REMARK    1  A    between atoms: _1  and  _3
REMARK    2  A    between atoms: _3  and  _4
REMARK    3  A    between atoms: _3  and  _6
REMARK    4  A    between atoms: _6  and  _7
REMARK    5  A    between atoms: _10  and  _12
REMARK    6  A    between atoms: _12  and  _13
REMARK    7  A    between atoms: _12  and  _15
REMARK    8  A    between atoms: _15  and  _16
REMARK    9  A    between atoms: _21  and  _22
REMARK   10  A    between atoms: _24  and  _26
REMARK   11  A    between atoms: _26  and  _27
REMARK   12  A    between atoms: _26  and  _29
REMARK   13  A    between atoms: _29  and  _30
REMARK   14  A    between atoms: _33  and  _35
REMARK   15  A    between atoms: _35  and  _36
REMARK   16  A    between atoms: _35  and  _38
REMARK   17  A    between atoms: _38  and  _39
REMARK   18  A    between atoms: _41  and  _43
REMARK   19  A    between atoms: _43  and  _44
REMARK   20  A    between atoms: _43  and  _46
REMARK   21  A    between atoms: _46  and  _47
REMARK   22  A    between atoms: _57  and  _59
REMARK   23  A    between atoms: _59  and  _60
REMARK   24  A    between atoms: _59  and  _62
REMARK   25  A    between atoms: _62  and  _63
REMARK   26  A    between atoms: _66  and  _68
REMARK   27  A    between atoms: _68  and  _69
REMARK   28  A    between atoms: _68  and  _71
REMARK   29  A    between atoms: _71  and  _72
REMARK   30  A    between atoms: _75  and  _77
REMARK   31  A    between atoms: _77  and  _78
REMARK   32  A    between atoms: _77  and  _80
REMARK   33  A    between atoms: _80  and  _81
REMARK   34  A    between atoms: _84  and  _86
REMARK   35  A    between atoms: _86  and  _87
REMARK   36  A    between atoms: _86  and  _89
REMARK   37  A    between atoms: _89  and  _90
REMARK   38  A    between atoms: _93  and  _95
REMARK   39  A    between atoms: _95  and  _96
REMARK   40  A    between atoms: _99  and  _101
REMARK   41  A    between atoms: _101  and  _102
REMARK   42  A    between atoms: _101  and  _104
REMARK   43  A    between atoms: _104  and  _105
REMARK   44  A    between atoms: _105  and  _106
REMARK   45  A    between atoms: _106  and  _107
REMARK   46  A    between atoms: _107  and  _108
REMARK   47  A    between atoms: _112  and  _114
REMARK   48  A    between atoms: _114  and  _115
REMARK   49  A    between atoms: _117  and  _119
REMARK   50  A    between atoms: _119  and  _120
REMARK   51  A    between atoms: _119  and  _122
REMARK   52  A    between atoms: _122  and  _123
REMARK   53  A    between atoms: _126  and  _128
REMARK   54  A    between atoms: _128  and  _129
REMARK   55  A    between atoms: _128  and  _131
REMARK   56  A    between atoms: _131  and  _132
REMARK   57  A    between atoms: _135  and  _137
REMARK   58  A    between atoms: _137  and  _138
REMARK   59  A    between atoms: _137  and  _140
REMARK   60  A    between atoms: _140  and  _141
REMARK   61  A    between atoms: _147  and  _149
REMARK   62  A    between atoms: _149  and  _150
REMARK   63  A    between atoms: _149  and  _152
REMARK   64  A    between atoms: _152  and  _153
REMARK   65  A    between atoms: _155  and  _157
REMARK   66  A    between atoms: _157  and  _158
REMARK   67  A    between atoms: _157  and  _160
REMARK   68  A    between atoms: _160  and  _161
REMARK   69  A    between atoms: _161  and  _162
REMARK   70  A    between atoms: _162  and  _163
REMARK   71  A    between atoms: _163  and  _164
REMARK   72  A    between atoms: _168  and  _170
REMARK   73  A    between atoms: _170  and  _171
REMARK   74  A    between atoms: _170  and  _173
REMARK   75  A    between atoms: _173  and  _174
REMARK   76  A    between atoms: _174  and  _175
REMARK   77  A    between atoms: _180  and  _182
REMARK   78  A    between atoms: _182  and  _183
REMARK   79  A    between atoms: _182  and  _185
REMARK   80  A    between atoms: _185  and  _186
REMARK   81  A    between atoms: _189  and  _191
REMARK   82  A    between atoms: _191  and  _192
REMARK   83  A    between atoms: _191  and  _194
REMARK   84  A    between atoms: _194  and  _195
REMARK   85  A    between atoms: _198  and  _200
REMARK   86  A    between atoms: _200  and  _201
REMARK   87  A    between atoms: _200  and  _203
REMARK   88  A    between atoms: _203  and  _204
REMARK   89  A    between atoms: _207  and  _209
REMARK   90  A    between atoms: _209  and  _210
REMARK   91  A    between atoms: _209  and  _212
REMARK   92  A    between atoms: _212  and  _213
REMARK   93  A    between atoms: _213  and  _214
REMARK   94  A    between atoms: _214  and  _215
REMARK   95  A    between atoms: _224  and  _226
REMARK   96  A    between atoms: _226  and  _227
REMARK   97  A    between atoms: _226  and  _229
REMARK   98  A    between atoms: _229  and  _230
REMARK   99  A    between atoms: _233  and  _235
REMARK  100  A    between atoms: _235  and  _236
REMARK  101  A    between atoms: _235  and  _238
REMARK  102  A    between atoms: _238  and  _239
REMARK  103  A    between atoms: _239  and  _240
REMARK  104  A    between atoms: _240  and  _241
REMARK  105  A    between atoms: _241  and  _242
REMARK  106  A    between atoms: _246  and  _248
REMARK  107  A    between atoms: _248  and  _249
REMARK  108  A    between atoms: _248  and  _251
REMARK  109  A    between atoms: _251  and  _252
REMARK  110  A    between atoms: _252  and  _253
REMARK  111  A    between atoms: _255  and  _257
REMARK  112  A    between atoms: _257  and  _258
REMARK  113  A    between atoms: _257  and  _260
REMARK  114  A    between atoms: _260  and  _261
REMARK  115  A    between atoms: _261  and  _262
REMARK  116  A    between atoms: _265  and  _267
REMARK  117  A    between atoms: _267  and  _268
REMARK  118  A    between atoms: _267  and  _270
REMARK  119  A    between atoms: _272  and  _274
REMARK  120  A    between atoms: _274  and  _275
REMARK  121  A    between atoms: _274  and  _277
REMARK  122  A    between atoms: _277  and  _278
REMARK  123  A    between atoms: _281  and  _283
REMARK  124  A    between atoms: _283  and  _284
REMARK  125  A    between atoms: _283  and  _286
REMARK  126  A    between atoms: _286  and  _287
REMARK  127  A    between atoms: _290  and  _292
REMARK  128  A    between atoms: _292  and  _293
REMARK  129  A    between atoms: _292  and  _295
REMARK  130  A    between atoms: _295  and  _296
REMARK  131  A    between atoms: _301  and  _302
REMARK  132  A    between atoms: _304  and  _306
REMARK  133  A    between atoms: _306  and  _307
REMARK  134  A    between atoms: _306  and  _309
REMARK  135  A    between atoms: _309  and  _310
REMARK  136  A    between atoms: _313  and  _315
REMARK  137  A    between atoms: _315  and  _316
REMARK  138  A    between atoms: _315  and  _318
REMARK  139  A    between atoms: _320  and  _322
REMARK  140  A    between atoms: _322  and  _323
REMARK  141  A    between atoms: _322  and  _325
REMARK  142  A    between atoms: _325  and  _326
REMARK  143  A    between atoms: _329  and  _331
REMARK  144  A    between atoms: _331  and  _332
REMARK  145  A    between atoms: _334  and  _336
REMARK  146  A    between atoms: _336  and  _337
REMARK  147  A    between atoms: _336  and  _339
REMARK  148  A    between atoms: _339  and  _340
REMARK  149  A    between atoms: _340  and  _341
REMARK  150  A    between atoms: _341  and  _342
REMARK  151  A    between atoms: _342  and  _343
REMARK  152  A    between atoms: _347  and  _349
REMARK  153  A    between atoms: _349  and  _350
REMARK  154  A    between atoms: _349  and  _352
REMARK  155  A    between atoms: _352  and  _353
REMARK  156  A    between atoms: _358  and  _360
REMARK  157  A    between atoms: _360  and  _361
REMARK  158  A    between atoms: _360  and  _363
REMARK  159  A    between atoms: _363  and  _364
REMARK  160  A    between atoms: _367  and  _369
REMARK  161  A    between atoms: _369  and  _370
REMARK  162  A    between atoms: _369  and  _372
REMARK  163  A    between atoms: _372  and  _373
REMARK  164  A    between atoms: _383  and  _385
REMARK  165  A    between atoms: _385  and  _386
REMARK  166  A    between atoms: _385  and  _388
REMARK  167  A    between atoms: _388  and  _389
REMARK  168  A    between atoms: _389  and  _390
REMARK  169  A    between atoms: _390  and  _391
REMARK  170  A    between atoms: _391  and  _392
REMARK  171  A    between atoms: _397  and  _398
REMARK  172  A    between atoms: _403  and  _405
REMARK  173  A    between atoms: _405  and  _406
REMARK  174  A    between atoms: _409  and  _411
REMARK  175  A    between atoms: _411  and  _412
REMARK  176  A    between atoms: _411  and  _414
REMARK  177  A    between atoms: _417  and  _419
REMARK  178  A    between atoms: _419  and  _420
REMARK  179  A    between atoms: _419  and  _422
REMARK  180  A    between atoms: _422  and  _423
REMARK  181  A    between atoms: _423  and  _424
REMARK  182  A    between atoms: _427  and  _429
REMARK  183  A    between atoms: _429  and  _430
REMARK  184  A    between atoms: _433  and  _435
REMARK  185  A    between atoms: _435  and  _436
REMARK  186  A    between atoms: _435  and  _438
REMARK  187  A    between atoms: _438  and  _439
REMARK  188  A    between atoms: _444  and  _445
REMARK  189  A    between atoms: _447  and  _449
REMARK  190  A    between atoms: _449  and  _450
REMARK  191  A    between atoms: _452  and  _454
REMARK  192  A    between atoms: _454  and  _455
REMARK  193  A    between atoms: _454  and  _457
REMARK  194  A    between atoms: _457  and  _458
REMARK  195  A    between atoms: _458  and  _459
REMARK  196  A    between atoms: _462  and  _464
REMARK  197  A    between atoms: _464  and  _465
REMARK  198  A    between atoms: _464  and  _467
REMARK  199  A    between atoms: _467  and  _468
REMARK  200  A    between atoms: _474  and  _476
REMARK  201  A    between atoms: _476  and  _477
REMARK  202  A    between atoms: _476  and  _479
REMARK  203  A    between atoms: _479  and  _480
REMARK  204  A    between atoms: _483  and  _485
REMARK  205  A    between atoms: _485  and  _486
REMARK  206  A    between atoms: _485  and  _488
REMARK  207  A    between atoms: _488  and  _489
REMARK  208  A    between atoms: _489  and  _490
REMARK  209  A    between atoms: _492  and  _494
REMARK  210  A    between atoms: _494  and  _495
REMARK  211  A    between atoms: _494  and  _497
REMARK  212  A    between atoms: _497  and  _498
REMARK  213  A    between atoms: _504  and  _506
REMARK  214  A    between atoms: _506  and  _507
REMARK  215  A    between atoms: _506  and  _509
REMARK  216  A    between atoms: _509  and  _510
REMARK  217  A    between atoms: _510  and  _511
REMARK  218  A    between atoms: _514  and  _516
REMARK  219  A    between atoms: _516  and  _517
REMARK  220  A    between atoms: _516  and  _519
REMARK  221  A    between atoms: _519  and  _520
REMARK  222  A    between atoms: _523  and  _525
REMARK  223  A    between atoms: _525  and  _526
REMARK  224  A    between atoms: _525  and  _528
REMARK  225  A    between atoms: _528  and  _529
REMARK  226  A    between atoms: _532  and  _534
REMARK  227  A    between atoms: _534  and  _535
REMARK  228  A    between atoms: _534  and  _537
REMARK  229  A    between atoms: _537  and  _538
REMARK  230  A    between atoms: _544  and  _546
REMARK  231  A    between atoms: _546  and  _547
REMARK  232  A    between atoms: _546  and  _549
REMARK  233  A    between atoms: _552  and  _554
REMARK  234  A    between atoms: _554  and  _555
REMARK  235  A    between atoms: _559  and  _560
REMARK  236  A    between atoms: _565  and  _567
REMARK  237  A    between atoms: _567  and  _568
REMARK  238  A    between atoms: _567  and  _570
REMARK  239  A    between atoms: _570  and  _571
REMARK  240  A    between atoms: _574  and  _576
REMARK  241  A    between atoms: _576  and  _577
REMARK  242  A    between atoms: _576  and  _579
REMARK  243  A    between atoms: _579  and  _580
REMARK  244  A    between atoms: _587  and  _588
REMARK  245  A    between atoms: _593  and  _595
REMARK  246  A    between atoms: _595  and  _596
REMARK  247  A    between atoms: _595  and  _598
REMARK  248  A    between atoms: _601  and  _603
REMARK  249  A    between atoms: _603  and  _604
REMARK  250  A    between atoms: _607  and  _609
REMARK  251  A    between atoms: _609  and  _610
REMARK  252  A    between atoms: _609  and  _612
REMARK  253  A    between atoms: _612  and  _613
REMARK  254  A    between atoms: _618  and  _619
REMARK  255  A    between atoms: _621  and  _623
REMARK  256  A    between atoms: _623  and  _624
REMARK  257  A    between atoms: _623  and  _626
REMARK  258  A    between atoms: _626  and  _627
REMARK  259  A    between atoms: _632  and  _634
REMARK  260  A    between atoms: _634  and  _635
REMARK  261  A    between atoms: _634  and  _637
REMARK  262  A    between atoms: _637  and  _638
REMARK  263  A    between atoms: _641  and  _643
REMARK  264  A    between atoms: _643  and  _644
REMARK  265  A    between atoms: _643  and  _646
REMARK  266  A    between atoms: _646  and  _647
REMARK  267  A    between atoms: _650  and  _652
REMARK  268  A    between atoms: _652  and  _653
REMARK  269  A    between atoms: _652  and  _655
REMARK  270  A    between atoms: _655  and  _656
REMARK  271  A    between atoms: _656  and  _657
REMARK  272  A    between atoms: _657  and  _658
REMARK  273  A    between atoms: _658  and  _659
REMARK  274  A    between atoms: _663  and  _665
REMARK  275  A    between atoms: _665  and  _666
REMARK  276  A    between atoms: _665  and  _668
REMARK  277  A    between atoms: _668  and  _669
REMARK  278  A    between atoms: _675  and  _677
REMARK  279  A    between atoms: _677  and  _678
REMARK  280  A    between atoms: _677  and  _680
REMARK  281  A    between atoms: _680  and  _681
REMARK  282  A    between atoms: _684  and  _686
REMARK  283  A    between atoms: _686  and  _687
REMARK  284  A    between atoms: _686  and  _689
REMARK  285  A    between atoms: _689  and  _690
REMARK  286  A    between atoms: _692  and  _694
REMARK  287  A    between atoms: _694  and  _695
REMARK  288  A    between atoms: _694  and  _697
REMARK  289  A    between atoms: _697  and  _698
REMARK  290  A    between atoms: _701  and  _703
REMARK  291  A    between atoms: _703  and  _704
REMARK  292  A    between atoms: _703  and  _706
REMARK  293  A    between atoms: _706  and  _707
REMARK  294  A    between atoms: _707  and  _708
REMARK  295  A    between atoms: _708  and  _709
REMARK  296  A    between atoms: _718  and  _720
REMARK  297  A    between atoms: _720  and  _721
REMARK  298  A    between atoms: _720  and  _723
REMARK  299  A    between atoms: _723  and  _724
REMARK  300  A    between atoms: _724  and  _725
REMARK  301  A    between atoms: _725  and  _726
REMARK  302  A    between atoms: _726  and  _727
REMARK  303  A    between atoms: _731  and  _733
REMARK  304  A    between atoms: _733  and  _734
REMARK  305  A    between atoms: _733  and  _736
REMARK  306  A    between atoms: _736  and  _737
REMARK  307  A    between atoms: _740  and  _742
REMARK  308  A    between atoms: _742  and  _743
REMARK  309  A    between atoms: _742  and  _745
REMARK  310  A    between atoms: _745  and  _746
REMARK  311  A    between atoms: _746  and  _747
REMARK  312  A    between atoms: _749  and  _751
REMARK  313  A    between atoms: _751  and  _752
REMARK  314  A    between atoms: _751  and  _754
REMARK  315  A    between atoms: _757  and  _759
REMARK  316  A    between atoms: _759  and  _760
REMARK  317  A    between atoms: _759  and  _762
REMARK  318  A    between atoms: _762  and  _763
REMARK                            x       y       z     vdW  Elec       q    Type
REMARK                         _______ _______ _______ _____ _____    ______ ____
ROOT
ATOM      1  CA  LEU A   2      12.579   1.048  15.379  0.00  0.00    +0.149 C 
ENDROOT
BRANCH   1   3
ATOM      2  C   PHE A   1      11.894   3.385  15.672  0.00  0.00    +0.239 C 
ATOM      3  N   LEU A   2      12.757   2.396  15.914  0.00  0.00    -0.297 N 
ATOM      4  H   LEU A   2      13.589   2.593  16.507  0.00  0.00    +0.150 HD
ATOM      5  O   PHE A   1      10.831   3.218  15.090  0.00  0.00    -0.274 OA
BRANCH   2   6
ATOM      6  CA  PHE A   1      12.255   4.777  16.188  0.00  0.00    +0.149 C 
BRANCH   6   7
ATOM      7  N   PHE A   1      13.432   4.760  17.047  0.00  0.00    -0.238 NA
ATOM      8  H   PHE A   1      14.375   4.846  16.616  0.00  0.00    +0.142 HD
ENDBRANCH   6   7
BRANCH   6   9
ATOM      9  CB  PHE A   1      12.472   5.720  15.001  0.00  0.00    +0.053 C 
BRANCH   9  10
ATOM     10  CG  PHE A   1      12.904   7.102  15.395  0.00  0.00    -0.020 A 
ATOM     11  CD2 PHE A   1      12.056   7.924  16.098  0.00  0.00    -0.004 A 
ATOM     12  CE2 PHE A   1      12.453   9.199  16.459  0.00  0.00    -0.000 A 
ATOM     13  CZ  PHE A   1      13.708   9.654  16.101  0.00  0.00    -0.000 A 
ATOM     14  CE1 PHE A   1      14.560   8.836  15.397  0.00  0.00    -0.000 A 
ATOM     15  CD1 PHE A   1      14.149   7.567  15.047  0.00  0.00    -0.004 A 
ENDBRANCH   9  10
ENDBRANCH   6   9
ENDBRANCH   2   6
ENDBRANCH   1   3
BRANCH   1  16
ATOM     16  C   LEU A   2      11.987   0.104  16.391  0.00  0.00    +0.241 C 
ATOM     17  O   LEU A   2      12.303   0.173  17.577  0.00  0.00    -0.273 OA
ATOM     18  N   SER A   3      11.175  -0.821  15.903  0.00  0.00    -0.296 N 
ATOM     19  H   SER A   3      10.897  -0.779  14.902  0.00  0.00    +0.150 HD
BRANCH  18  20
ATOM     20  CA  SER A   3      10.663  -1.897  16.742  0.00  0.00    +0.166 C 
BRANCH  20  21
ATOM     21  C   SER A   3      11.747  -2.926  17.004  0.00  0.00    +0.229 C 
ATOM     22  O   SER A   3      12.736  -3.001  16.270  0.00  0.00    -0.286 OA
ENDBRANCH  20  21
BRANCH  20  23
ATOM     23  CB  SER A   3       9.477  -2.574  16.071  0.00  0.00    +0.165 C 
BRANCH  23  24
ATOM     24  OG  SER A   3       9.896  -3.248  14.897  0.00  0.00    -0.380 OA
ATOM     25  H   SER A   3      10.295  -2.596  14.268  0.00  0.00    +0.211 HD
ENDBRANCH  23  24
ENDBRANCH  20  23
ENDBRANCH  18  20
ENDBRANCH   1  16
BRANCH   1  26
ATOM     26  CB  LEU A   2      13.921   0.449  14.905  0.00  0.00    +0.029 C 
BRANCH  26  27
ATOM     27  CG  LEU A   2      14.715   1.269  13.896  0.00  0.00    +0.002 C 
ATOM     28  CD2 LEU A   2      16.014   0.567  13.510  0.00  0.00    +0.000 C 
ATOM     29  CD1 LEU A   2      13.882   1.581  12.651  0.00  0.00    +0.000 C 
ENDBRANCH  26  27
ENDBRANCH   1  26
TORSDOF 12
REMARK  Name = ../refined-set-2016/4omk/4omk_pocket.pdb
REMARK  318 active torsions:
REMARK  status: ('A' for Active; 'I' for Inactive)
REMARK    1  A    between atoms: _1  and  _3
REMARK    2  A    between atoms: _3  and  _4
REMARK    3  A    between atoms: _3  and  _6
REMARK    4  A    between atoms: _6  and  _7
REMARK    5  A    between atoms: _10  and  _12
REMARK    6  A    between atoms: _12  and  _13
REMARK    7  A    between atoms: _12  and  _15
REMARK    8  A    between atoms: _15  and  _16
REMARK    9  A    between atoms: _21  and  _22
REMARK   10  A    between atoms: _24  and  _26
REMARK   11  A    between atoms: _26  and  _27
REMARK   12  A    between atoms: _26  and  _29
REMARK   13  A    between atoms: _29  and  _30
REMARK   14  A    between atoms: _33  and  _35
REMARK   15  A    between atoms: _35  and  _36
REMARK   16  A    between atoms: _35  and  _38
REMARK   17  A    between atoms: _38  and  _39
REMARK   18  A    between atoms: _41  and  _43
REMARK   19  A    between atoms: _43  and  _44
REMARK   20  A    between atoms: _43  and  _46
REMARK   21  A    between atoms: _46  and  _47
REMARK   22  A    between atoms: _57  and  _59
REMARK   23  A    between atoms: _59  and  _60
REMARK   24  A    between atoms: _59  and  _62
REMARK   25  A    between atoms: _62  and  _63
REMARK   26  A    between atoms: _66  and  _68
REMARK   27  A    between atoms: _68  and  _69
REMARK   28  A    between atoms: _68  and  _71
REMARK   29  A    between atoms: _71  and  _72
REMARK   30  A    between atoms: _75  and  _77
REMARK   31  A    between atoms: _77  and  _78
REMARK   32  A    between atoms: _77  and  _80
REMARK   33  A    between atoms: _80  and  _81
REMARK   34  A    between atoms: _84  and  _86
REMARK   35  A    between atoms: _86  and  _87
REMARK   36  A    between atoms: _86  and  _89
REMARK   37  A    between atoms: _89  and  _90
REMARK   38  A    between atoms: _93  and  _95
REMARK   39  A    between atoms: _95  and  _96
REMARK   40  A    between atoms: _99  and  _101
REMARK   41  A    between atoms: _101  and  _102
REMARK   42  A    between atoms: _101  and  _104
REMARK   43  A    between atoms: _104  and  _105
REMARK   44  A    between atoms: _105  and  _106
REMARK   45  A    between atoms: _106  and  _107
REMARK   46  A    between atoms: _107  and  _108
REMARK   47  A    between atoms: _112  and  _114
REMARK   48  A    between atoms: _114  and  _115
REMARK   49  A    between atoms: _117  and  _119
REMARK   50  A    between atoms: _119  and  _120
REMARK   51  A    between atoms: _119  and  _122
REMARK   52  A    between atoms: _122  and  _123
REMARK   53  A    between atoms: _126  and  _128
REMARK   54  A    between atoms: _128  and  _129
REMARK   55  A    between atoms: _128  and  _131
REMARK   56  A    between atoms: _131  and  _132
REMARK   57  A    between atoms: _135  and  _137
REMARK   58  A    between atoms: _137  and  _138
REMARK   59  A    between atoms: _137  and  _140
REMARK   60  A    between atoms: _140  and  _141
REMARK   61  A    between atoms: _147  and  _149
REMARK   62  A    between atoms: _149  and  _150
REMARK   63  A    between atoms: _149  and  _152
REMARK   64  A    between atoms: _152  and  _153
REMARK   65  A    between atoms: _155  and  _157
REMARK   66  A    between atoms: _157  and  _158
REMARK   67  A    between atoms: _157  and  _160
REMARK   68  A    between atoms: _160  and  _161
REMARK   69  A    between atoms: _161  and  _162
REMARK   70  A    between atoms: _162  and  _163
REMARK   71  A    between atoms: _163  and  _164
REMARK   72  A    between atoms: _168  and  _170
REMARK   73  A    between atoms: _170  and  _171
REMARK   74  A    between atoms: _170  and  _173
REMARK   75  A    between atoms: _173  and  _174
REMARK   76  A    between atoms: _174  and  _175
REMARK   77  A    between atoms: _180  and  _182
REMARK   78  A    between atoms: _182  and  _183
REMARK   79  A    between atoms: _182  and  _185
REMARK   80  A    between atoms: _185  and  _186
REMARK   81  A    between atoms: _189  and  _191
REMARK   82  A    between atoms: _191  and  _192
REMARK   83  A    between atoms: _191  and  _194
REMARK   84  A    between atoms: _194  and  _195
REMARK   85  A    between atoms: _198  and  _200
REMARK   86  A    between atoms: _200  and  _201
REMARK   87  A    between atoms: _200  and  _203
REMARK   88  A    between atoms: _203  and  _204
REMARK   89  A    between atoms: _207  and  _209
REMARK   90  A    between atoms: _209  and  _210
REMARK   91  A    between atoms: _209  and  _212
REMARK   92  A    between atoms: _212  and  _213
REMARK   93  A    between atoms: _213  and  _214
REMARK   94  A    between atoms: _214  and  _215
REMARK   95  A    between atoms: _224  and  _226
REMARK   96  A    between atoms: _226  and  _227
REMARK   97  A    between atoms: _226  and  _229
REMARK   98  A    between atoms: _229  and  _230
REMARK   99  A    between atoms: _233  and  _235
REMARK  100  A    between atoms: _235  and  _236
REMARK  101  A    between atoms: _235  and  _238
REMARK  102  A    between atoms: _238  and  _239
REMARK  103  A    between atoms: _239  and  _240
REMARK  104  A    between atoms: _240  and  _241
REMARK  105  A    between atoms: _241  and  _242
REMARK  106  A    between atoms: _246  and  _248
REMARK  107  A    between atoms: _248  and  _249
REMARK  108  A    between atoms: _248  and  _251
REMARK  109  A    between atoms: _251  and  _252
REMARK  110  A    between atoms: _252  and  _253
REMARK  111  A    between atoms: _255  and  _257
REMARK  112  A    between atoms: _257  and  _258
REMARK  113  A    between atoms: _257  and  _260
REMARK  114  A    between atoms: _260  and  _261
REMARK  115  A    between atoms: _261  and  _262
REMARK  116  A    between atoms: _265  and  _267
REMARK  117  A    between atoms: _267  and  _268
REMARK  118  A    between atoms: _267  and  _270
REMARK  119  A    between atoms: _272  and  _274
REMARK  120  A    between atoms: _274  and  _275
REMARK  121  A    between atoms: _274  and  _277
REMARK  122  A    between atoms: _277  and  _278
REMARK  123  A    between atoms: _281  and  _283
REMARK  124  A    between atoms: _283  and  _284
REMARK  125  A    between atoms: _283  and  _286
REMARK  126  A    between atoms: _286  and  _287
REMARK  127  A    between atoms: _290  and  _292
REMARK  128  A    between atoms: _292  and  _293
REMARK  129  A    between atoms: _292  and  _295
REMARK  130  A    between atoms: _295  and  _296
REMARK  131  A    between atoms: _301  and  _302
REMARK  132  A    between atoms: _304  and  _306
REMARK  133  A    between atoms: _306  and  _307
REMARK  134  A    between atoms: _306  and  _309
REMARK  135  A    between atoms: _309  and  _310
REMARK  136  A    between atoms: _313  and  _315
REMARK  137  A    between atoms: _315  and  _316
REMARK  138  A    between atoms: _315  and  _318
REMARK  139  A    between atoms: _320  and  _322
REMARK  140  A    between atoms: _322  and  _323
REMARK  141  A    between atoms: _322  and  _325
REMARK  142  A    between atoms: _325  and  _326
REMARK  143  A    between atoms: _329  and  _331
REMARK  144  A    between atoms: _331  and  _332
REMARK  145  A    between atoms: _334  and  _336
REMARK  146  A    between atoms: _336  and  _337
REMARK  147  A    between atoms: _336  and  _339
REMARK  148  A    between atoms: _339  and  _340
REMARK  149  A    between atoms: _340  and  _341
REMARK  150  A    between atoms: _341  and  _342
REMARK  151  A    between atoms: _342  and  _343
REMARK  152  A    between atoms: _347  and  _349
REMARK  153  A    between atoms: _349  and  _350
REMARK  154  A    between atoms: _349  and  _352
REMARK  155  A    between atoms: _352  and  _353
REMARK  156  A    between atoms: _358  and  _360
REMARK  157  A    between atoms: _360  and  _361
REMARK  158  A    between atoms: _360  and  _363
REMARK  159  A    between atoms: _363  and  _364
REMARK  160  A    between atoms: _367  and  _369
REMARK  161  A    between atoms: _369  and  _370
REMARK  162  A    between atoms: _369  and  _372
REMARK  163  A    between atoms: _372  and  _373
REMARK  164  A    between atoms: _383  and  _385
REMARK  165  A    between atoms: _385  and  _386
REMARK  166  A    between atoms: _385  and  _388
REMARK  167  A    between atoms: _388  and  _389
REMARK  168  A    between atoms: _389  and  _390
REMARK  169  A    between atoms: _390  and  _391
REMARK  170  A    between atoms: _391  and  _392
REMARK  171  A    between atoms: _397  and  _398
REMARK  172  A    between atoms: _403  and  _405
REMARK  173  A    between atoms: _405  and  _406
REMARK  174  A    between atoms: _409  and  _411
REMARK  175  A    between atoms: _411  and  _412
REMARK  176  A    between atoms: _411  and  _414
REMARK  177  A    between atoms: _417  and  _419
REMARK  178  A    between atoms: _419  and  _420
REMARK  179  A    between atoms: _419  and  _422
REMARK  180  A    between atoms: _422  and  _423
REMARK  181  A    between atoms: _423  and  _424
REMARK  182  A    between atoms: _427  and  _429
REMARK  183  A    between atoms: _429  and  _430
REMARK  184  A    between atoms: _433  and  _435
REMARK  185  A    between atoms: _435  and  _436
REMARK  186  A    between atoms: _435  and  _438
REMARK  187  A    between atoms: _438  and  _439
REMARK  188  A    between atoms: _444  and  _445
REMARK  189  A    between atoms: _447  and  _449
REMARK  190  A    between atoms: _449  and  _450
REMARK  191  A    between atoms: _452  and  _454
REMARK  192  A    between atoms: _454  and  _455
REMARK  193  A    between atoms: _454  and  _457
REMARK  194  A    between atoms: _457  and  _458
REMARK  195  A    between atoms: _458  and  _459
REMARK  196  A    between atoms: _462  and  _464
REMARK  197  A    between atoms: _464  and  _465
REMARK  198  A    between atoms: _464  and  _467
REMARK  199  A    between atoms: _467  and  _468
REMARK  200  A    between atoms: _474  and  _476
REMARK  201  A    between atoms: _476  and  _477
REMARK  202  A    between atoms: _476  and  _479
REMARK  203  A    between atoms: _479  and  _480
REMARK  204  A    between atoms: _483  and  _485
REMARK  205  A    between atoms: _485  and  _486
REMARK  206  A    between atoms: _485  and  _488
REMARK  207  A    between atoms: _488  and  _489
REMARK  208  A    between atoms: _489  and  _490
REMARK  209  A    between atoms: _492  and  _494
REMARK  210  A    between atoms: _494  and  _495
REMARK  211  A    between atoms: _494  and  _497
REMARK  212  A    between atoms: _497  and  _498
REMARK  213  A    between atoms: _504  and  _506
REMARK  214  A    between atoms: _506  and  _507
REMARK  215  A    between atoms: _506  and  _509
REMARK  216  A    between atoms: _509  and  _510
REMARK  217  A    between atoms: _510  and  _511
REMARK  218  A    between atoms: _514  and  _516
REMARK  219  A    between atoms: _516  and  _517
REMARK  220  A    between atoms: _516  and  _519
REMARK  221  A    between atoms: _519  and  _520
REMARK  222  A    between atoms: _523  and  _525
REMARK  223  A    between atoms: _525  and  _526
REMARK  224  A    between atoms: _525  and  _528
REMARK  225  A    between atoms: _528  and  _529
REMARK  226  A    between atoms: _532  and  _534
REMARK  227  A    between atoms: _534  and  _535
REMARK  228  A    between atoms: _534  and  _537
REMARK  229  A    between atoms: _537  and  _538
REMARK  230  A    between atoms: _544  and  _546
REMARK  231  A    between atoms: _546  and  _547
REMARK  232  A    between atoms: _546  and  _549
REMARK  233  A    between atoms: _552  and  _554
REMARK  234  A    between atoms: _554  and  _555
REMARK  235  A    between atoms: _559  and  _560
REMARK  236  A    between atoms: _565  and  _567
REMARK  237  A    between atoms: _567  and  _568
REMARK  238  A    between atoms: _567  and  _570
REMARK  239  A    between atoms: _570  and  _571
REMARK  240  A    between atoms: _574  and  _576
REMARK  241  A    between atoms: _576  and  _577
REMARK  242  A    between atoms: _576  and  _579
REMARK  243  A    between atoms: _579  and  _580
REMARK  244  A    between atoms: _587  and  _588
REMARK  245  A    between atoms: _593  and  _595
REMARK  246  A    between atoms: _595  and  _596
REMARK  247  A    between atoms: _595  and  _598
REMARK  248  A    between atoms: _601  and  _603
REMARK  249  A    between atoms: _603  and  _604
REMARK  250  A    between atoms: _607  and  _609
REMARK  251  A    between atoms: _609  and  _610
REMARK  252  A    between atoms: _609  and  _612
REMARK  253  A    between atoms: _612  and  _613
REMARK  254  A    between atoms: _618  and  _619
REMARK  255  A    between atoms: _621  and  _623
REMARK  256  A    between atoms: _623  and  _624
REMARK  257  A    between atoms: _623  and  _626
REMARK  258  A    between atoms: _626  and  _627
REMARK  259  A    between atoms: _632  and  _634
REMARK  260  A    between atoms: _634  and  _635
REMARK  261  A    between atoms: _634  and  _637
REMARK  262  A    between atoms: _637  and  _638
REMARK  263  A    between atoms: _641  and  _643
REMARK  264  A    between atoms: _643  and  _644
REMARK  265  A    between atoms: _643  and  _646
REMARK  266  A    between atoms: _646  and  _647
REMARK  267  A    between atoms: _650  and  _652
REMARK  268  A    between atoms: _652  and  _653
REMARK  269  A    between atoms: _652  and  _655
REMARK  270  A    between atoms: _655  and  _656
REMARK  271  A    between atoms: _656  and  _657
REMARK  272  A    between atoms: _657  and  _658
REMARK  273  A    between atoms: _658  and  _659
REMARK  274  A    between atoms: _663  and  _665
REMARK  275  A    between atoms: _665  and  _666
REMARK  276  A    between atoms: _665  and  _668
REMARK  277  A    between atoms: _668  and  _669
REMARK  278  A    between atoms: _675  and  _677
REMARK  279  A    between atoms: _677  and  _678
REMARK  280  A    between atoms: _677  and  _680
REMARK  281  A    between atoms: _680  and  _681
REMARK  282  A    between atoms: _684  and  _686
REMARK  283  A    between atoms: _686  and  _687
REMARK  284  A    between atoms: _686  and  _689
REMARK  285  A    between atoms: _689  and  _690
REMARK  286  A    between atoms: _692  and  _694
REMARK  287  A    between atoms: _694  and  _695
REMARK  288  A    between atoms: _694  and  _697
REMARK  289  A    between atoms: _697  and  _698
REMARK  290  A    between atoms: _701  and  _703
REMARK  291  A    between atoms: _703  and  _704
REMARK  292  A    between atoms: _703  and  _706
REMARK  293  A    between atoms: _706  and  _707
REMARK  294  A    between atoms: _707  and  _708
REMARK  295  A    between atoms: _708  and  _709
REMARK  296  A    between atoms: _718  and  _720
REMARK  297  A    between atoms: _720  and  _721
REMARK  298  A    between atoms: _720  and  _723
REMARK  299  A    between atoms: _723  and  _724
REMARK  300  A    between atoms: _724  and  _725
REMARK  301  A    between atoms: _725  and  _726
REMARK  302  A    between atoms: _726  and  _727
REMARK  303  A    between atoms: _731  and  _733
REMARK  304  A    between atoms: _733  and  _734
REMARK  305  A    between atoms: _733  and  _736
REMARK  306  A    between atoms: _736  and  _737
REMARK  307  A    between atoms: _740  and  _742
REMARK  308  A    between atoms: _742  and  _743
REMARK  309  A    between atoms: _742  and  _745
REMARK  310  A    between atoms: _745  and  _746
REMARK  311  A    between atoms: _746  and  _747
REMARK  312  A    between atoms: _749  and  _751
REMARK  313  A    between atoms: _751  and  _752
REMARK  314  A    between atoms: _751  and  _754
REMARK  315  A    between atoms: _757  and  _759
REMARK  316  A    between atoms: _759  and  _760
REMARK  317  A    between atoms: _759  and  _762
REMARK  318  A    between atoms: _762  and  _763
REMARK                            x       y       z     vdW  Elec       q    Type
REMARK                         _______ _______ _______ _____ _____    ______ ____
ROOT
ATOM      1  CA  ARG A   2      16.113  -4.395  14.828  0.00  0.00    +0.137 C 
ENDROOT
BRANCH   1   3
ATOM      2  C   THR A   1      14.361  -4.639  13.180  0.00  0.00    +0.241 C 
ATOM      3  N   ARG A   2      14.719  -4.333  14.423  0.00  0.00    -0.298 N 
ATOM      4  H   ARG A   2      13.995  -4.047  15.112  0.00  0.00    +0.150 HD
ATOM      5  O   THR A   1      15.149  -5.031  12.351  0.00  0.00    -0.274 OA
BRANCH   2   6
ATOM      6  CA  THR A   1      12.886  -4.513  12.841  0.00  0.00    +0.172 C 
BRANCH   6   7
ATOM      7  N   THR A   1      12.063  -5.106  13.895  0.00  0.00    -0.236 NA
ATOM      8  H   THR A   1      11.414  -4.499  14.435  0.00  0.00    +0.142 HD
ENDBRANCH   6   7
BRANCH   6   9
ATOM      9  CB  THR A   1      12.527  -3.044  12.619  0.00  0.00    +0.135 C 
ATOM     10  CG2 THR A   1      13.453  -2.380  11.612  0.00  0.00    +0.034 C 
BRANCH   9  11
ATOM     11  OG1 THR A   1      11.176  -2.989  12.167  0.00  0.00    -0.383 OA
ATOM     12  HG1 THR A   1      10.918  -2.045  12.015  0.00  0.00    +0.210 HD
ENDBRANCH   9  11
ENDBRANCH   6   9
ENDBRANCH   2   6
ENDBRANCH   1   3
BRANCH   1  13
ATOM     13  C   ARG A   2      16.691  -5.792  14.609  0.00  0.00    +0.227 C 
ATOM     14  O   ARG A   2      17.830  -5.933  14.190  0.00  0.00    -0.286 OA
ENDBRANCH   1  13
BRANCH   1  15
ATOM     15  CB  ARG A   2      16.254  -3.972  16.291  0.00  0.00    +0.031 C 
BRANCH  15  16
ATOM     16  CG  ARG A   2      16.074  -2.483  16.539  0.00  0.00    +0.045 C 
BRANCH  16  17
ATOM     17  CD  ARG A   2      16.049  -2.245  18.052  0.00  0.00    +0.174 C 
BRANCH  17  18
ATOM     18  NE  ARG A   2      15.512  -0.942  18.440  0.00  0.00    -0.265 N 
ATOM     19  CZ  ARG A   2      15.180  -0.625  19.690  0.00  0.00    +0.342 C 
ATOM     20  NH2 ARG A   2      15.324  -1.516  20.667  0.00  0.00    -0.292 N 
ATOM     21 HH21 ARG A   2      15.064  -1.265  21.642  0.00  0.00    +0.255 HD
ATOM     22 HH22 ARG A   2      15.697  -2.464  20.456  0.00  0.00    +0.255 HD
ATOM     23  NH1 ARG A   2      14.698   0.579  19.970  0.00  0.00    -0.292 N 
ATOM     24 HH11 ARG A   2      14.440   0.821  20.948  0.00  0.00    +0.255 HD
ATOM     25 HH12 ARG A   2      14.578   1.280  19.212  0.00  0.00    +0.255 HD
ATOM     26  HE  ARG A   2      15.382  -0.223  17.699  0.00  0.00    +0.259 HD
ENDBRANCH  17  18
ENDBRANCH  16  17
ENDBRANCH  15  16
ENDBRANCH   1  15
TORSDOF 10
REMARK  Name = ../refined-set-2016/4omk/4omk_pocket.pdb
REMARK  318 active torsions:
REMARK  status: ('A' for Active; 'I' for Inactive)
REMARK    1  A    between atoms: _1  and  _3
REMARK    2  A    between atoms: _3  and  _4
REMARK    3  A    between atoms: _3  and  _6
REMARK    4  A    between atoms: _6  and  _7
REMARK    5  A    between atoms: _10  and  _12
REMARK    6  A    between atoms: _12  and  _13
REMARK    7  A    between atoms: _12  and  _15
REMARK    8  A    between atoms: _15  and  _16
REMARK    9  A    between atoms: _21  and  _22
REMARK   10  A    between atoms: _24  and  _26
REMARK   11  A    between atoms: _26  and  _27
REMARK   12  A    between atoms: _26  and  _29
REMARK   13  A    between atoms: _29  and  _30
REMARK   14  A    between atoms: _33  and  _35
REMARK   15  A    between atoms: _35  and  _36
REMARK   16  A    between atoms: _35  and  _38
REMARK   17  A    between atoms: _38  and  _39
REMARK   18  A    between atoms: _41  and  _43
REMARK   19  A    between atoms: _43  and  _44
REMARK   20  A    between atoms: _43  and  _46
REMARK   21  A    between atoms: _46  and  _47
REMARK   22  A    between atoms: _57  and  _59
REMARK   23  A    between atoms: _59  and  _60
REMARK   24  A    between atoms: _59  and  _62
REMARK   25  A    between atoms: _62  and  _63
REMARK   26  A    between atoms: _66  and  _68
REMARK   27  A    between atoms: _68  and  _69
REMARK   28  A    between atoms: _68  and  _71
REMARK   29  A    between atoms: _71  and  _72
REMARK   30  A    between atoms: _75  and  _77
REMARK   31  A    between atoms: _77  and  _78
REMARK   32  A    between atoms: _77  and  _80
REMARK   33  A    between atoms: _80  and  _81
REMARK   34  A    between atoms: _84  and  _86
REMARK   35  A    between atoms: _86  and  _87
REMARK   36  A    between atoms: _86  and  _89
REMARK   37  A    between atoms: _89  and  _90
REMARK   38  A    between atoms: _93  and  _95
REMARK   39  A    between atoms: _95  and  _96
REMARK   40  A    between atoms: _99  and  _101
REMARK   41  A    between atoms: _101  and  _102
REMARK   42  A    between atoms: _101  and  _104
REMARK   43  A    between atoms: _104  and  _105
REMARK   44  A    between atoms: _105  and  _106
REMARK   45  A    between atoms: _106  and  _107
REMARK   46  A    between atoms: _107  and  _108
REMARK   47  A    between atoms: _112  and  _114
REMARK   48  A    between atoms: _114  and  _115
REMARK   49  A    between atoms: _117  and  _119
REMARK   50  A    between atoms: _119  and  _120
REMARK   51  A    between atoms: _119  and  _122
REMARK   52  A    between atoms: _122  and  _123
REMARK   53  A    between atoms: _126  and  _128
REMARK   54  A    between atoms: _128  and  _129
REMARK   55  A    between atoms: _128  and  _131
REMARK   56  A    between atoms: _131  and  _132
REMARK   57  A    between atoms: _135  and  _137
REMARK   58  A    between atoms: _137  and  _138
REMARK   59  A    between atoms: _137  and  _140
REMARK   60  A    between atoms: _140  and  _141
REMARK   61  A    between atoms: _147  and  _149
REMARK   62  A    between atoms: _149  and  _150
REMARK   63  A    between atoms: _149  and  _152
REMARK   64  A    between atoms: _152  and  _153
REMARK   65  A    between atoms: _155  and  _157
REMARK   66  A    between atoms: _157  and  _158
REMARK   67  A    between atoms: _157  and  _160
REMARK   68  A    between atoms: _160  and  _161
REMARK   69  A    between atoms: _161  and  _162
REMARK   70  A    between atoms: _162  and  _163
REMARK   71  A    between atoms: _163  and  _164
REMARK   72  A    between atoms: _168  and  _170
REMARK   73  A    between atoms: _170  and  _171
REMARK   74  A    between atoms: _170  and  _173
REMARK   75  A    between atoms: _173  and  _174
REMARK   76  A    between atoms: _174  and  _175
REMARK   77  A    between atoms: _180  and  _182
REMARK   78  A    between atoms: _182  and  _183
REMARK   79  A    between atoms: _182  and  _185
REMARK   80  A    between atoms: _185  and  _186
REMARK   81  A    between atoms: _189  and  _191
REMARK   82  A    between atoms: _191  and  _192
REMARK   83  A    between atoms: _191  and  _194
REMARK   84  A    between atoms: _194  and  _195
REMARK   85  A    between atoms: _198  and  _200
REMARK   86  A    between atoms: _200  and  _201
REMARK   87  A    between atoms: _200  and  _203
REMARK   88  A    between atoms: _203  and  _204
REMARK   89  A    between atoms: _207  and  _209
REMARK   90  A    between atoms: _209  and  _210
REMARK   91  A    between atoms: _209  and  _212
REMARK   92  A    between atoms: _212  and  _213
REMARK   93  A    between atoms: _213  and  _214
REMARK   94  A    between atoms: _214  and  _215
REMARK   95  A    between atoms: _224  and  _226
REMARK   96  A    between atoms: _226  and  _227
REMARK   97  A    between atoms: _226  and  _229
REMARK   98  A    between atoms: _229  and  _230
REMARK   99  A    between atoms: _233  and  _235
REMARK  100  A    between atoms: _235  and  _236
REMARK  101  A    between atoms: _235  and  _238
REMARK  102  A    between atoms: _238  and  _239
REMARK  103  A    between atoms: _239  and  _240
REMARK  104  A    between atoms: _240  and  _241
REMARK  105  A    between atoms: _241  and  _242
REMARK  106  A    between atoms: _246  and  _248
REMARK  107  A    between atoms: _248  and  _249
REMARK  108  A    between atoms: _248  and  _251
REMARK  109  A    between atoms: _251  and  _252
REMARK  110  A    between atoms: _252  and  _253
REMARK  111  A    between atoms: _255  and  _257
REMARK  112  A    between atoms: _257  and  _258
REMARK  113  A    between atoms: _257  and  _260
REMARK  114  A    between atoms: _260  and  _261
REMARK  115  A    between atoms: _261  and  _262
REMARK  116  A    between atoms: _265  and  _267
REMARK  117  A    between atoms: _267  and  _268
REMARK  118  A    between atoms: _267  and  _270
REMARK  119  A    between atoms: _272  and  _274
REMARK  120  A    between atoms: _274  and  _275
REMARK  121  A    between atoms: _274  and  _277
REMARK  122  A    between atoms: _277  and  _278
REMARK  123  A    between atoms: _281  and  _283
REMARK  124  A    between atoms: _283  and  _284
REMARK  125  A    between atoms: _283  and  _286
REMARK  126  A    between atoms: _286  and  _287
REMARK  127  A    between atoms: _290  and  _292
REMARK  128  A    between atoms: _292  and  _293
REMARK  129  A    between atoms: _292  and  _295
REMARK  130  A    between atoms: _295  and  _296
REMARK  131  A    between atoms: _301  and  _302
REMARK  132  A    between atoms: _304  and  _306
REMARK  133  A    between atoms: _306  and  _307
REMARK  134  A    between atoms: _306  and  _309
REMARK  135  A    between atoms: _309  and  _310
REMARK  136  A    between atoms: _313  and  _315
REMARK  137  A    between atoms: _315  and  _316
REMARK  138  A    between atoms: _315  and  _318
REMARK  139  A    between atoms: _320  and  _322
REMARK  140  A    between atoms: _322  and  _323
REMARK  141  A    between atoms: _322  and  _325
REMARK  142  A    between atoms: _325  and  _326
REMARK  143  A    between atoms: _329  and  _331
REMARK  144  A    between atoms: _331  and  _332
REMARK  145  A    between atoms: _334  and  _336
REMARK  146  A    between atoms: _336  and  _337
REMARK  147  A    between atoms: _336  and  _339
REMARK  148  A    between atoms: _339  and  _340
REMARK  149  A    between atoms: _340  and  _341
REMARK  150  A    between atoms: _341  and  _342
REMARK  151  A    between atoms: _342  and  _343
REMARK  152  A    between atoms: _347  and  _349
REMARK  153  A    between atoms: _349  and  _350
REMARK  154  A    between atoms: _349  and  _352
REMARK  155  A    between atoms: _352  and  _353
REMARK  156  A    between atoms: _358  and  _360
REMARK  157  A    between atoms: _360  and  _361
REMARK  158  A    between atoms: _360  and  _363
REMARK  159  A    between atoms: _363  and  _364
REMARK  160  A    between atoms: _367  and  _369
REMARK  161  A    between atoms: _369  and  _370
REMARK  162  A    between atoms: _369  and  _372
REMARK  163  A    between atoms: _372  and  _373
REMARK  164  A    between atoms: _383  and  _385
REMARK  165  A    between atoms: _385  and  _386
REMARK  166  A    between atoms: _385  and  _388
REMARK  167  A    between atoms: _388  and  _389
REMARK  168  A    between atoms: _389  and  _390
REMARK  169  A    between atoms: _390  and  _391
REMARK  170  A    between atoms: _391  and  _392
REMARK  171  A    between atoms: _397  and  _398
REMARK  172  A    between atoms: _403  and  _405
REMARK  173  A    between atoms: _405  and  _406
REMARK  174  A    between atoms: _409  and  _411
REMARK  175  A    between atoms: _411  and  _412
REMARK  176  A    between atoms: _411  and  _414
REMARK  177  A    between atoms: _417  and  _419
REMARK  178  A    between atoms: _419  and  _420
REMARK  179  A    between atoms: _419  and  _422
REMARK  180  A    between atoms: _422  and  _423
REMARK  181  A    between atoms: _423  and  _424
REMARK  182  A    between atoms: _427  and  _429
REMARK  183  A    between atoms: _429  and  _430
REMARK  184  A    between atoms: _433  and  _435
REMARK  185  A    between atoms: _435  and  _436
REMARK  186  A    between atoms: _435  and  _438
REMARK  187  A    between atoms: _438  and  _439
REMARK  188  A    between atoms: _444  and  _445
REMARK  189  A    between atoms: _447  and  _449
REMARK  190  A    between atoms: _449  and  _450
REMARK  191  A    between atoms: _452  and  _454
REMARK  192  A    between atoms: _454  and  _455
REMARK  193  A    between atoms: _454  and  _457
REMARK  194  A    between atoms: _457  and  _458
REMARK  195  A    between atoms: _458  and  _459
REMARK  196  A    between atoms: _462  and  _464
REMARK  197  A    between atoms: _464  and  _465
REMARK  198  A    between atoms: _464  and  _467
REMARK  199  A    between atoms: _467  and  _468
REMARK  200  A    between atoms: _474  and  _476
REMARK  201  A    between atoms: _476  and  _477
REMARK  202  A    between atoms: _476  and  _479
REMARK  203  A    between atoms: _479  and  _480
REMARK  204  A    between atoms: _483  and  _485
REMARK  205  A    between atoms: _485  and  _486
REMARK  206  A    between atoms: _485  and  _488
REMARK  207  A    between atoms: _488  and  _489
REMARK  208  A    between atoms: _489  and  _490
REMARK  209  A    between atoms: _492  and  _494
REMARK  210  A    between atoms: _494  and  _495
REMARK  211  A    between atoms: _494  and  _497
REMARK  212  A    between atoms: _497  and  _498
REMARK  213  A    between atoms: _504  and  _506
REMARK  214  A    between atoms: _506  and  _507
REMARK  215  A    between atoms: _506  and  _509
REMARK  216  A    between atoms: _509  and  _510
REMARK  217  A    between atoms: _510  and  _511
REMARK  218  A    between atoms: _514  and  _516
REMARK  219  A    between atoms: _516  and  _517
REMARK  220  A    between atoms: _516  and  _519
REMARK  221  A    between atoms: _519  and  _520
REMARK  222  A    between atoms: _523  and  _525
REMARK  223  A    between atoms: _525  and  _526
REMARK  224  A    between atoms: _525  and  _528
REMARK  225  A    between atoms: _528  and  _529
REMARK  226  A    between atoms: _532  and  _534
REMARK  227  A    between atoms: _534  and  _535
REMARK  228  A    between atoms: _534  and  _537
REMARK  229  A    between atoms: _537  and  _538
REMARK  230  A    between atoms: _544  and  _546
REMARK  231  A    between atoms: _546  and  _547
REMARK  232  A    between atoms: _546  and  _549
REMARK  233  A    between atoms: _552  and  _554
REMARK  234  A    between atoms: _554  and  _555
REMARK  235  A    between atoms: _559  and  _560
REMARK  236  A    between atoms: _565  and  _567
REMARK  237  A    between atoms: _567  and  _568
REMARK  238  A    between atoms: _567  and  _570
REMARK  239  A    between atoms: _570  and  _571
REMARK  240  A    between atoms: _574  and  _576
REMARK  241  A    between atoms: _576  and  _577
REMARK  242  A    between atoms: _576  and  _579
REMARK  243  A    between atoms: _579  and  _580
REMARK  244  A    between atoms: _587  and  _588
REMARK  245  A    between atoms: _593  and  _595
REMARK  246  A    between atoms: _595  and  _596
REMARK  247  A    between atoms: _595  and  _598
REMARK  248  A    between atoms: _601  and  _603
REMARK  249  A    between atoms: _603  and  _604
REMARK  250  A    between atoms: _607  and  _609
REMARK  251  A    between atoms: _609  and  _610
REMARK  252  A    between atoms: _609  and  _612
REMARK  253  A    between atoms: _612  and  _613
REMARK  254  A    between atoms: _618  and  _619
REMARK  255  A    between atoms: _621  and  _623
REMARK  256  A    between atoms: _623  and  _624
REMARK  257  A    between atoms: _623  and  _626
REMARK  258  A    between atoms: _626  and  _627
REMARK  259  A    between atoms: _632  and  _634
REMARK  260  A    between atoms: _634  and  _635
REMARK  261  A    between atoms: _634  and  _637
REMARK  262  A    between atoms: _637  and  _638
REMARK  263  A    between atoms: _641  and  _643
REMARK  264  A    between atoms: _643  and  _644
REMARK  265  A    between atoms: _643  and  _646
REMARK  266  A    between atoms: _646  and  _647
REMARK  267  A    between atoms: _650  and  _652
REMARK  268  A    between atoms: _652  and  _653
REMARK  269  A    between atoms: _652  and  _655
REMARK  270  A    between atoms: _655  and  _656
REMARK  271  A    between atoms: _656  and  _657
REMARK  272  A    between atoms: _657  and  _658
REMARK  273  A    between atoms: _658  and  _659
REMARK  274  A    between atoms: _663  and  _665
REMARK  275  A    between atoms: _665  and  _666
REMARK  276  A    between atoms: _665  and  _668
REMARK  277  A    between atoms: _668  and  _669
REMARK  278  A    between atoms: _675  and  _677
REMARK  279  A    between atoms: _677  and  _678
REMARK  280  A    between atoms: _677  and  _680
REMARK  281  A    between atoms: _680  and  _681
REMARK  282  A    between atoms: _684  and  _686
REMARK  283  A    between atoms: _686  and  _687
REMARK  284  A    between atoms: _686  and  _689
REMARK  285  A    between atoms: _689  and  _690
REMARK  286  A    between atoms: _692  and  _694
REMARK  287  A    between atoms: _694  and  _695
REMARK  288  A    between atoms: _694  and  _697
REMARK  289  A    between atoms: _697  and  _698
REMARK  290  A    between atoms: _701  and  _703
REMARK  291  A    between atoms: _703  and  _704
REMARK  292  A    between atoms: _703  and  _706
REMARK  293  A    between atoms: _706  and  _707
REMARK  294  A    between atoms: _707  and  _708
REMARK  295  A    between atoms: _708  and  _709
REMARK  296  A    between atoms: _718  and  _720
REMARK  297  A    between atoms: _720  and  _721
REMARK  298  A    between atoms: _720  and  _723
REMARK  299  A    between atoms: _723  and  _724
REMARK  300  A    between atoms: _724  and  _725
REMARK  301  A    between atoms: _725  and  _726
REMARK  302  A    between atoms: _726  and  _727
REMARK  303  A    between atoms: _731  and  _733
REMARK  304  A    between atoms: _733  and  _734
REMARK  305  A    between atoms: _733  and  _736
REMARK  306  A    between atoms: _736  and  _737
REMARK  307  A    between atoms: _740  and  _742
REMARK  308  A    between atoms: _742  and  _743
REMARK  309  A    between atoms: _742  and  _745
REMARK  310  A    between atoms: _745  and  _746
REMARK  311  A    between atoms: _746  and  _747
REMARK  312  A    between atoms: _749  and  _751
REMARK  313  A    between atoms: _751  and  _752
REMARK  314  A    between atoms: _751  and  _754
REMARK  315  A    between atoms: _757  and  _759
REMARK  316  A    between atoms: _759  and  _760
REMARK  317  A    between atoms: _759  and  _762
REMARK  318  A    between atoms: _762  and  _763
REMARK                            x       y       z     vdW  Elec       q    Type
REMARK                         _______ _______ _______ _____ _____    ______ ____
ROOT
ATOM      1  CA  ILE A   2      19.020  -5.675  10.376  0.00  0.00    +0.148 C 
ENDROOT
BRANCH   1   2
ATOM      2  C   ILE A   2      20.332  -6.438  10.498  0.00  0.00    +0.241 C 
ATOM      3  O   ILE A   2      20.761  -6.790  11.592  0.00  0.00    -0.273 OA
ATOM      4  N   MET A   3      20.947  -6.701   9.352  0.00  0.00    -0.297 N 
ATOM      5  H   MET A   3      20.509  -6.372   8.468  0.00  0.00    +0.150 HD
BRANCH   4   6
ATOM      6  CA  MET A   3      22.207  -7.429   9.274  0.00  0.00    +0.149 C 
BRANCH   6   7
ATOM      7  C   MET A   3      23.262  -6.525   8.655  0.00  0.00    +0.241 C 
ATOM      8  N   VAL A   4      24.277  -6.174   9.443  0.00  0.00    -0.298 N 
ATOM      9  H   VAL A   4      24.292  -6.501  10.430  0.00  0.00    +0.150 HD
ATOM     10  O   MET A   3      23.154  -6.152   7.467  0.00  0.00    -0.273 OA
BRANCH   8  11
ATOM     11  CA  VAL A   4      25.370  -5.339   8.948  0.00  0.00    +0.137 C 
BRANCH  11  12
ATOM     12  CB  VAL A   4      25.952  -4.471  10.068  0.00  0.00    +0.026 C 
ATOM     13  CG2 VAL A   4      24.867  -3.624  10.697  0.00  0.00    +0.002 C 
ATOM     14  CG1 VAL A   4      27.073  -3.592   9.532  0.00  0.00    +0.002 C 
ENDBRANCH  11  12
BRANCH  11  15
ATOM     15  C   VAL A   4      26.471  -6.195   8.323  0.00  0.00    +0.227 C 
ATOM     16  O   VAL A   4      27.103  -6.988   9.014  0.00  0.00    -0.286 OA
ENDBRANCH  11  15
ENDBRANCH   8  11
ENDBRANCH   6   7
BRANCH   6  17
ATOM     17  CB  MET A   3      22.036  -8.695   8.436  0.00  0.00    +0.041 C 
BRANCH  17  18
ATOM     18  CG  MET A   3      22.145  -9.990   9.209  0.00  0.00    +0.060 C 
BRANCH  18  19
ATOM     19  SD  MET A   3      22.219 -11.379   8.067  0.00  0.00    -0.139 S 
ATOM     20  CE  MET A   3      23.976 -11.569   7.845  0.00  0.00    +0.069 C 
ENDBRANCH  18  19
ENDBRANCH  17  18
ENDBRANCH   6  17
ENDBRANCH   4   6
ENDBRANCH   1   2
BRANCH   1  22
ATOM     21  C   LYS A   1      17.239  -7.327  10.193  0.00  0.00    +0.238 C 
ATOM     22  N   ILE A   2      17.926  -6.469  10.936  0.00  0.00    -0.297 N 
ATOM     23  H   ILE A   2      17.681  -6.358  11.941  0.00  0.00    +0.150 HD
ATOM     24  O   LYS A   1      17.456  -7.506   8.989  0.00  0.00    -0.274 OA
BRANCH  21  25
ATOM     25  CA  LYS A   1      16.139  -8.113  10.909  0.00  0.00    +0.145 C 
BRANCH  25  26
ATOM     26  N   LYS A   1      16.046  -7.810  12.336  0.00  0.00    -0.238 NA
ATOM     27  H   LYS A   1      15.507  -6.975  12.642  0.00  0.00    +0.142 HD
ENDBRANCH  25  26
BRANCH  25  28
ATOM     28  CB  LYS A   1      14.777  -7.859  10.248  0.00  0.00    +0.026 C 
BRANCH  28  29
ATOM     29  CG  LYS A   1      13.755  -8.934  10.663  0.00  0.00    -0.000 C 
BRANCH  29  30
ATOM     30  CD  LYS A   1      12.350  -8.537  10.338  0.00  0.00    -0.024 C 
BRANCH  30  31
ATOM     31  CE  LYS A   1      11.369  -9.704  10.561  0.00  0.00    -0.086 C 
BRANCH  31  32
ATOM     32  NZ  LYS A   1       9.968  -9.207  10.329  0.00  0.00    +0.380 N 
ATOM     33  HZ1 LYS A   1       9.760  -8.437  10.996  0.00  0.00    -0.089 HD
ATOM     34  HZ2 LYS A   1       9.296  -9.987  10.477  0.00  0.00    -0.089 HD
ATOM     35  HZ3 LYS A   1       9.883  -8.855   9.354  0.00  0.00    -0.089 HD
ENDBRANCH  31  32
ENDBRANCH  30  31
ENDBRANCH  29  30
ENDBRANCH  28  29
ENDBRANCH  25  28
ENDBRANCH  21  25
ENDBRANCH   1  22
BRANCH   1  36
ATOM     36  CB  ILE A   2      19.109  -4.317  11.068  0.00  0.00    +0.027 C 
ATOM     37  CG2 ILE A   2      20.394  -3.567  10.659  0.00  0.00    +0.002 C 
BRANCH  36  38
ATOM     38  CG1 ILE A   2      17.873  -3.491  10.706  0.00  0.00    +0.002 C 
ATOM     39  CD1 ILE A   2      17.647  -2.280  11.550  0.00  0.00    +0.000 C 
ENDBRANCH  36  38
ENDBRANCH   1  36
TORSDOF 19
REMARK  Name = ../refined-set-2016/4omk/4omk_pocket.pdb
REMARK  318 active torsions:
REMARK  status: ('A' for Active; 'I' for Inactive)
REMARK    1  A    between atoms: _1  and  _3
REMARK    2  A    between atoms: _3  and  _4
REMARK    3  A    between atoms: _3  and  _6
REMARK    4  A    between atoms: _6  and  _7
REMARK    5  A    between atoms: _10  and  _12
REMARK    6  A    between atoms: _12  and  _13
REMARK    7  A    between atoms: _12  and  _15
REMARK    8  A    between atoms: _15  and  _16
REMARK    9  A    between atoms: _21  and  _22
REMARK   10  A    between atoms: _24  and  _26
REMARK   11  A    between atoms: _26  and  _27
REMARK   12  A    between atoms: _26  and  _29
REMARK   13  A    between atoms: _29  and  _30
REMARK   14  A    between atoms: _33  and  _35
REMARK   15  A    between atoms: _35  and  _36
REMARK   16  A    between atoms: _35  and  _38
REMARK   17  A    between atoms: _38  and  _39
REMARK   18  A    between atoms: _41  and  _43
REMARK   19  A    between atoms: _43  and  _44
REMARK   20  A    between atoms: _43  and  _46
REMARK   21  A    between atoms: _46  and  _47
REMARK   22  A    between atoms: _57  and  _59
REMARK   23  A    between atoms: _59  and  _60
REMARK   24  A    between atoms: _59  and  _62
REMARK   25  A    between atoms: _62  and  _63
REMARK   26  A    between atoms: _66  and  _68
REMARK   27  A    between atoms: _68  and  _69
REMARK   28  A    between atoms: _68  and  _71
REMARK   29  A    between atoms: _71  and  _72
REMARK   30  A    between atoms: _75  and  _77
REMARK   31  A    between atoms: _77  and  _78
REMARK   32  A    between atoms: _77  and  _80
REMARK   33  A    between atoms: _80  and  _81
REMARK   34  A    between atoms: _84  and  _86
REMARK   35  A    between atoms: _86  and  _87
REMARK   36  A    between atoms: _86  and  _89
REMARK   37  A    between atoms: _89  and  _90
REMARK   38  A    between atoms: _93  and  _95
REMARK   39  A    between atoms: _95  and  _96
REMARK   40  A    between atoms: _99  and  _101
REMARK   41  A    between atoms: _101  and  _102
REMARK   42  A    between atoms: _101  and  _104
REMARK   43  A    between atoms: _104  and  _105
REMARK   44  A    between atoms: _105  and  _106
REMARK   45  A    between atoms: _106  and  _107
REMARK   46  A    between atoms: _107  and  _108
REMARK   47  A    between atoms: _112  and  _114
REMARK   48  A    between atoms: _114  and  _115
REMARK   49  A    between atoms: _117  and  _119
REMARK   50  A    between atoms: _119  and  _120
REMARK   51  A    between atoms: _119  and  _122
REMARK   52  A    between atoms: _122  and  _123
REMARK   53  A    between atoms: _126  and  _128
REMARK   54  A    between atoms: _128  and  _129
REMARK   55  A    between atoms: _128  and  _131
REMARK   56  A    between atoms: _131  and  _132
REMARK   57  A    between atoms: _135  and  _137
REMARK   58  A    between atoms: _137  and  _138
REMARK   59  A    between atoms: _137  and  _140
REMARK   60  A    between atoms: _140  and  _141
REMARK   61  A    between atoms: _147  and  _149
REMARK   62  A    between atoms: _149  and  _150
REMARK   63  A    between atoms: _149  and  _152
REMARK   64  A    between atoms: _152  and  _153
REMARK   65  A    between atoms: _155  and  _157
REMARK   66  A    between atoms: _157  and  _158
REMARK   67  A    between atoms: _157  and  _160
REMARK   68  A    between atoms: _160  and  _161
REMARK   69  A    between atoms: _161  and  _162
REMARK   70  A    between atoms: _162  and  _163
REMARK   71  A    between atoms: _163  and  _164
REMARK   72  A    between atoms: _168  and  _170
REMARK   73  A    between atoms: _170  and  _171
REMARK   74  A    between atoms: _170  and  _173
REMARK   75  A    between atoms: _173  and  _174
REMARK   76  A    between atoms: _174  and  _175
REMARK   77  A    between atoms: _180  and  _182
REMARK   78  A    between atoms: _182  and  _183
REMARK   79  A    between atoms: _182  and  _185
REMARK   80  A    between atoms: _185  and  _186
REMARK   81  A    between atoms: _189  and  _191
REMARK   82  A    between atoms: _191  and  _192
REMARK   83  A    between atoms: _191  and  _194
REMARK   84  A    between atoms: _194  and  _195
REMARK   85  A    between atoms: _198  and  _200
REMARK   86  A    between atoms: _200  and  _201
REMARK   87  A    between atoms: _200  and  _203
REMARK   88  A    between atoms: _203  and  _204
REMARK   89  A    between atoms: _207  and  _209
REMARK   90  A    between atoms: _209  and  _210
REMARK   91  A    between atoms: _209  and  _212
REMARK   92  A    between atoms: _212  and  _213
REMARK   93  A    between atoms: _213  and  _214
REMARK   94  A    between atoms: _214  and  _215
REMARK   95  A    between atoms: _224  and  _226
REMARK   96  A    between atoms: _226  and  _227
REMARK   97  A    between atoms: _226  and  _229
REMARK   98  A    between atoms: _229  and  _230
REMARK   99  A    between atoms: _233  and  _235
REMARK  100  A    between atoms: _235  and  _236
REMARK  101  A    between atoms: _235  and  _238
REMARK  102  A    between atoms: _238  and  _239
REMARK  103  A    between atoms: _239  and  _240
REMARK  104  A    between atoms: _240  and  _241
REMARK  105  A    between atoms: _241  and  _242
REMARK  106  A    between atoms: _246  and  _248
REMARK  107  A    between atoms: _248  and  _249
REMARK  108  A    between atoms: _248  and  _251
REMARK  109  A    between atoms: _251  and  _252
REMARK  110  A    between atoms: _252  and  _253
REMARK  111  A    between atoms: _255  and  _257
REMARK  112  A    between atoms: _257  and  _258
REMARK  113  A    between atoms: _257  and  _260
REMARK  114  A    between atoms: _260  and  _261
REMARK  115  A    between atoms: _261  and  _262
REMARK  116  A    between atoms: _265  and  _267
REMARK  117  A    between atoms: _267  and  _268
REMARK  118  A    between atoms: _267  and  _270
REMARK  119  A    between atoms: _272  and  _274
REMARK  120  A    between atoms: _274  and  _275
REMARK  121  A    between atoms: _274  and  _277
REMARK  122  A    between atoms: _277  and  _278
REMARK  123  A    between atoms: _281  and  _283
REMARK  124  A    between atoms: _283  and  _284
REMARK  125  A    between atoms: _283  and  _286
REMARK  126  A    between atoms: _286  and  _287
REMARK  127  A    between atoms: _290  and  _292
REMARK  128  A    between atoms: _292  and  _293
REMARK  129  A    between atoms: _292  and  _295
REMARK  130  A    between atoms: _295  and  _296
REMARK  131  A    between atoms: _301  and  _302
REMARK  132  A    between atoms: _304  and  _306
REMARK  133  A    between atoms: _306  and  _307
REMARK  134  A    between atoms: _306  and  _309
REMARK  135  A    between atoms: _309  and  _310
REMARK  136  A    between atoms: _313  and  _315
REMARK  137  A    between atoms: _315  and  _316
REMARK  138  A    between atoms: _315  and  _318
REMARK  139  A    between atoms: _320  and  _322
REMARK  140  A    between atoms: _322  and  _323
REMARK  141  A    between atoms: _322  and  _325
REMARK  142  A    between atoms: _325  and  _326
REMARK  143  A    between atoms: _329  and  _331
REMARK  144  A    between atoms: _331  and  _332
REMARK  145  A    between atoms: _334  and  _336
REMARK  146  A    between atoms: _336  and  _337
REMARK  147  A    between atoms: _336  and  _339
REMARK  148  A    between atoms: _339  and  _340
REMARK  149  A    between atoms: _340  and  _341
REMARK  150  A    between atoms: _341  and  _342
REMARK  151  A    between atoms: _342  and  _343
REMARK  152  A    between atoms: _347  and  _349
REMARK  153  A    between atoms: _349  and  _350
REMARK  154  A    between atoms: _349  and  _352
REMARK  155  A    between atoms: _352  and  _353
REMARK  156  A    between atoms: _358  and  _360
REMARK  157  A    between atoms: _360  and  _361
REMARK  158  A    between atoms: _360  and  _363
REMARK  159  A    between atoms: _363  and  _364
REMARK  160  A    between atoms: _367  and  _369
REMARK  161  A    between atoms: _369  and  _370
REMARK  162  A    between atoms: _369  and  _372
REMARK  163  A    between atoms: _372  and  _373
REMARK  164  A    between atoms: _383  and  _385
REMARK  165  A    between atoms: _385  and  _386
REMARK  166  A    between atoms: _385  and  _388
REMARK  167  A    between atoms: _388  and  _389
REMARK  168  A    between atoms: _389  and  _390
REMARK  169  A    between atoms: _390  and  _391
REMARK  170  A    between atoms: _391  and  _392
REMARK  171  A    between atoms: _397  and  _398
REMARK  172  A    between atoms: _403  and  _405
REMARK  173  A    between atoms: _405  and  _406
REMARK  174  A    between atoms: _409  and  _411
REMARK  175  A    between atoms: _411  and  _412
REMARK  176  A    between atoms: _411  and  _414
REMARK  177  A    between atoms: _417  and  _419
REMARK  178  A    between atoms: _419  and  _420
REMARK  179  A    between atoms: _419  and  _422
REMARK  180  A    between atoms: _422  and  _423
REMARK  181  A    between atoms: _423  and  _424
REMARK  182  A    between atoms: _427  and  _429
REMARK  183  A    between atoms: _429  and  _430
REMARK  184  A    between atoms: _433  and  _435
REMARK  185  A    between atoms: _435  and  _436
REMARK  186  A    between atoms: _435  and  _438
REMARK  187  A    between atoms: _438  and  _439
REMARK  188  A    between atoms: _444  and  _445
REMARK  189  A    between atoms: _447  and  _449
REMARK  190  A    between atoms: _449  and  _450
REMARK  191  A    between atoms: _452  and  _454
REMARK  192  A    between atoms: _454  and  _455
REMARK  193  A    between atoms: _454  and  _457
REMARK  194  A    between atoms: _457  and  _458
REMARK  195  A    between atoms: _458  and  _459
REMARK  196  A    between atoms: _462  and  _464
REMARK  197  A    between atoms: _464  and  _465
REMARK  198  A    between atoms: _464  and  _467
REMARK  199  A    between atoms: _467  and  _468
REMARK  200  A    between atoms: _474  and  _476
REMARK  201  A    between atoms: _476  and  _477
REMARK  202  A    between atoms: _476  and  _479
REMARK  203  A    between atoms: _479  and  _480
REMARK  204  A    between atoms: _483  and  _485
REMARK  205  A    between atoms: _485  and  _486
REMARK  206  A    between atoms: _485  and  _488
REMARK  207  A    between atoms: _488  and  _489
REMARK  208  A    between atoms: _489  and  _490
REMARK  209  A    between atoms: _492  and  _494
REMARK  210  A    between atoms: _494  and  _495
REMARK  211  A    between atoms: _494  and  _497
REMARK  212  A    between atoms: _497  and  _498
REMARK  213  A    between atoms: _504  and  _506
REMARK  214  A    between atoms: _506  and  _507
REMARK  215  A    between atoms: _506  and  _509
REMARK  216  A    between atoms: _509  and  _510
REMARK  217  A    between atoms: _510  and  _511
REMARK  218  A    between atoms: _514  and  _516
REMARK  219  A    between atoms: _516  and  _517
REMARK  220  A    between atoms: _516  and  _519
REMARK  221  A    between atoms: _519  and  _520
REMARK  222  A    between atoms: _523  and  _525
REMARK  223  A    between atoms: _525  and  _526
REMARK  224  A    between atoms: _525  and  _528
REMARK  225  A    between atoms: _528  and  _529
REMARK  226  A    between atoms: _532  and  _534
REMARK  227  A    between atoms: _534  and  _535
REMARK  228  A    between atoms: _534  and  _537
REMARK  229  A    between atoms: _537  and  _538
REMARK  230  A    between atoms: _544  and  _546
REMARK  231  A    between atoms: _546  and  _547
REMARK  232  A    between atoms: _546  and  _549
REMARK  233  A    between atoms: _552  and  _554
REMARK  234  A    between atoms: _554  and  _555
REMARK  235  A    between atoms: _559  and  _560
REMARK  236  A    between atoms: _565  and  _567
REMARK  237  A    between atoms: _567  and  _568
REMARK  238  A    between atoms: _567  and  _570
REMARK  239  A    between atoms: _570  and  _571
REMARK  240  A    between atoms: _574  and  _576
REMARK  241  A    between atoms: _576  and  _577
REMARK  242  A    between atoms: _576  and  _579
REMARK  243  A    between atoms: _579  and  _580
REMARK  244  A    between atoms: _587  and  _588
REMARK  245  A    between atoms: _593  and  _595
REMARK  246  A    between atoms: _595  and  _596
REMARK  247  A    between atoms: _595  and  _598
REMARK  248  A    between atoms: _601  and  _603
REMARK  249  A    between atoms: _603  and  _604
REMARK  250  A    between atoms: _607  and  _609
REMARK  251  A    between atoms: _609  and  _610
REMARK  252  A    between atoms: _609  and  _612
REMARK  253  A    between atoms: _612  and  _613
REMARK  254  A    between atoms: _618  and  _619
REMARK  255  A    between atoms: _621  and  _623
REMARK  256  A    between atoms: _623  and  _624
REMARK  257  A    between atoms: _623  and  _626
REMARK  258  A    between atoms: _626  and  _627
REMARK  259  A    between atoms: _632  and  _634
REMARK  260  A    between atoms: _634  and  _635
REMARK  261  A    between atoms: _634  and  _637
REMARK  262  A    between atoms: _637  and  _638
REMARK  263  A    between atoms: _641  and  _643
REMARK  264  A    between atoms: _643  and  _644
REMARK  265  A    between atoms: _643  and  _646
REMARK  266  A    between atoms: _646  and  _647
REMARK  267  A    between atoms: _650  and  _652
REMARK  268  A    between atoms: _652  and  _653
REMARK  269  A    between atoms: _652  and  _655
REMARK  270  A    between atoms: _655  and  _656
REMARK  271  A    between atoms: _656  and  _657
REMARK  272  A    between atoms: _657  and  _658
REMARK  273  A    between atoms: _658  and  _659
REMARK  274  A    between atoms: _663  and  _665
REMARK  275  A    between atoms: _665  and  _666
REMARK  276  A    between atoms: _665  and  _668
REMARK  277  A    between atoms: _668  and  _669
REMARK  278  A    between atoms: _675  and  _677
REMARK  279  A    between atoms: _677  and  _678
REMARK  280  A    between atoms: _677  and  _680
REMARK  281  A    between atoms: _680  and  _681
REMARK  282  A    between atoms: _684  and  _686
REMARK  283  A    between atoms: _686  and  _687
REMARK  284  A    between atoms: _686  and  _689
REMARK  285  A    between atoms: _689  and  _690
REMARK  286  A    between atoms: _692  and  _694
REMARK  287  A    between atoms: _694  and  _695
REMARK  288  A    between atoms: _694  and  _697
REMARK  289  A    between atoms: _697  and  _698
REMARK  290  A    between atoms: _701  and  _703
REMARK  291  A    between atoms: _703  and  _704
REMARK  292  A    between atoms: _703  and  _706
REMARK  293  A    between atoms: _706  and  _707
REMARK  294  A    between atoms: _707  and  _708
REMARK  295  A    between atoms: _708  and  _709
REMARK  296  A    between atoms: _718  and  _720
REMARK  297  A    between atoms: _720  and  _721
REMARK  298  A    between atoms: _720  and  _723
REMARK  299  A    between atoms: _723  and  _724
REMARK  300  A    between atoms: _724  and  _725
REMARK  301  A    between atoms: _725  and  _726
REMARK  302  A    between atoms: _726  and  _727
REMARK  303  A    between atoms: _731  and  _733
REMARK  304  A    between atoms: _733  and  _734
REMARK  305  A    between atoms: _733  and  _736
REMARK  306  A    between atoms: _736  and  _737
REMARK  307  A    between atoms: _740  and  _742
REMARK  308  A    between atoms: _742  and  _743
REMARK  309  A    between atoms: _742  and  _745
REMARK  310  A    between atoms: _745  and  _746
REMARK  311  A    between atoms: _746  and  _747
REMARK  312  A    between atoms: _749  and  _751
REMARK  313  A    between atoms: _751  and  _752
REMARK  314  A    between atoms: _751  and  _754
REMARK  315  A    between atoms: _757  and  _759
REMARK  316  A    between atoms: _759  and  _760
REMARK  317  A    between atoms: _759  and  _762
REMARK  318  A    between atoms: _762  and  _763
REMARK                            x       y       z     vdW  Elec       q    Type
REMARK                         _______ _______ _______ _____ _____    ______ ____
ROOT
ATOM      1  CA  ILE A   1      20.072  19.259  -5.746  0.00  0.00    +0.133 C 
ENDROOT
BRANCH   1   2
ATOM      2  N   ILE A   1      21.249  18.630  -5.172  0.00  0.00    -0.239 NA
ATOM      3  H   ILE A   1      21.418  18.705  -4.149  0.00  0.00    +0.142 HD
ENDBRANCH   1   2
BRANCH   1   4
ATOM      4  CB  ILE A   1      18.956  19.263  -4.736  0.00  0.00    +0.023 C 
ATOM      5  CG2 ILE A   1      17.808  20.134  -5.202  0.00  0.00    +0.002 C 
BRANCH   4   6
ATOM      6  CG1 ILE A   1      18.457  17.821  -4.556  0.00  0.00    +0.002 C 
ATOM      7  CD1 ILE A   1      17.716  17.629  -3.341  0.00  0.00    +0.000 C 
ENDBRANCH   4   6
ENDBRANCH   1   4
BRANCH   1   8
ATOM      8  C   ILE A   1      20.416  20.675  -6.222  0.00  0.00    +0.224 C 
ATOM      9  O   ILE A   1      20.936  21.465  -5.435  0.00  0.00    -0.287 OA
ENDBRANCH   1   8
TORSDOF 4
REMARK  Name = ../refined-set-2016/4omk/4omk_pocket.pdb
REMARK  318 active torsions:
REMARK  status: ('A' for Active; 'I' for Inactive)
REMARK    1  A    between atoms: _1  and  _3
REMARK    2  A    between atoms: _3  and  _4
REMARK    3  A    between atoms: _3  and  _6
REMARK    4  A    between atoms: _6  and  _7
REMARK    5  A    between atoms: _10  and  _12
REMARK    6  A    between atoms: _12  and  _13
REMARK    7  A    between atoms: _12  and  _15
REMARK    8  A    between atoms: _15  and  _16
REMARK    9  A    between atoms: _21  and  _22
REMARK   10  A    between atoms: _24  and  _26
REMARK   11  A    between atoms: _26  and  _27
REMARK   12  A    between atoms: _26  and  _29
REMARK   13  A    between atoms: _29  and  _30
REMARK   14  A    between atoms: _33  and  _35
REMARK   15  A    between atoms: _35  and  _36
REMARK   16  A    between atoms: _35  and  _38
REMARK   17  A    between atoms: _38  and  _39
REMARK   18  A    between atoms: _41  and  _43
REMARK   19  A    between atoms: _43  and  _44
REMARK   20  A    between atoms: _43  and  _46
REMARK   21  A    between atoms: _46  and  _47
REMARK   22  A    between atoms: _57  and  _59
REMARK   23  A    between atoms: _59  and  _60
REMARK   24  A    between atoms: _59  and  _62
REMARK   25  A    between atoms: _62  and  _63
REMARK   26  A    between atoms: _66  and  _68
REMARK   27  A    between atoms: _68  and  _69
REMARK   28  A    between atoms: _68  and  _71
REMARK   29  A    between atoms: _71  and  _72
REMARK   30  A    between atoms: _75  and  _77
REMARK   31  A    between atoms: _77  and  _78
REMARK   32  A    between atoms: _77  and  _80
REMARK   33  A    between atoms: _80  and  _81
REMARK   34  A    between atoms: _84  and  _86
REMARK   35  A    between atoms: _86  and  _87
REMARK   36  A    between atoms: _86  and  _89
REMARK   37  A    between atoms: _89  and  _90
REMARK   38  A    between atoms: _93  and  _95
REMARK   39  A    between atoms: _95  and  _96
REMARK   40  A    between atoms: _99  and  _101
REMARK   41  A    between atoms: _101  and  _102
REMARK   42  A    between atoms: _101  and  _104
REMARK   43  A    between atoms: _104  and  _105
REMARK   44  A    between atoms: _105  and  _106
REMARK   45  A    between atoms: _106  and  _107
REMARK   46  A    between atoms: _107  and  _108
REMARK   47  A    between atoms: _112  and  _114
REMARK   48  A    between atoms: _114  and  _115
REMARK   49  A    between atoms: _117  and  _119
REMARK   50  A    between atoms: _119  and  _120
REMARK   51  A    between atoms: _119  and  _122
REMARK   52  A    between atoms: _122  and  _123
REMARK   53  A    between atoms: _126  and  _128
REMARK   54  A    between atoms: _128  and  _129
REMARK   55  A    between atoms: _128  and  _131
REMARK   56  A    between atoms: _131  and  _132
REMARK   57  A    between atoms: _135  and  _137
REMARK   58  A    between atoms: _137  and  _138
REMARK   59  A    between atoms: _137  and  _140
REMARK   60  A    between atoms: _140  and  _141
REMARK   61  A    between atoms: _147  and  _149
REMARK   62  A    between atoms: _149  and  _150
REMARK   63  A    between atoms: _149  and  _152
REMARK   64  A    between atoms: _152  and  _153
REMARK   65  A    between atoms: _155  and  _157
REMARK   66  A    between atoms: _157  and  _158
REMARK   67  A    between atoms: _157  and  _160
REMARK   68  A    between atoms: _160  and  _161
REMARK   69  A    between atoms: _161  and  _162
REMARK   70  A    between atoms: _162  and  _163
REMARK   71  A    between atoms: _163  and  _164
REMARK   72  A    between atoms: _168  and  _170
REMARK   73  A    between atoms: _170  and  _171
REMARK   74  A    between atoms: _170  and  _173
REMARK   75  A    between atoms: _173  and  _174
REMARK   76  A    between atoms: _174  and  _175
REMARK   77  A    between atoms: _180  and  _182
REMARK   78  A    between atoms: _182  and  _183
REMARK   79  A    between atoms: _182  and  _185
REMARK   80  A    between atoms: _185  and  _186
REMARK   81  A    between atoms: _189  and  _191
REMARK   82  A    between atoms: _191  and  _192
REMARK   83  A    between atoms: _191  and  _194
REMARK   84  A    between atoms: _194  and  _195
REMARK   85  A    between atoms: _198  and  _200
REMARK   86  A    between atoms: _200  and  _201
REMARK   87  A    between atoms: _200  and  _203
REMARK   88  A    between atoms: _203  and  _204
REMARK   89  A    between atoms: _207  and  _209
REMARK   90  A    between atoms: _209  and  _210
REMARK   91  A    between atoms: _209  and  _212
REMARK   92  A    between atoms: _212  and  _213
REMARK   93  A    between atoms: _213  and  _214
REMARK   94  A    between atoms: _214  and  _215
REMARK   95  A    between atoms: _224  and  _226
REMARK   96  A    between atoms: _226  and  _227
REMARK   97  A    between atoms: _226  and  _229
REMARK   98  A    between atoms: _229  and  _230
REMARK   99  A    between atoms: _233  and  _235
REMARK  100  A    between atoms: _235  and  _236
REMARK  101  A    between atoms: _235  and  _238
REMARK  102  A    between atoms: _238  and  _239
REMARK  103  A    between atoms: _239  and  _240
REMARK  104  A    between atoms: _240  and  _241
REMARK  105  A    between atoms: _241  and  _242
REMARK  106  A    between atoms: _246  and  _248
REMARK  107  A    between atoms: _248  and  _249
REMARK  108  A    between atoms: _248  and  _251
REMARK  109  A    between atoms: _251  and  _252
REMARK  110  A    between atoms: _252  and  _253
REMARK  111  A    between atoms: _255  and  _257
REMARK  112  A    between atoms: _257  and  _258
REMARK  113  A    between atoms: _257  and  _260
REMARK  114  A    between atoms: _260  and  _261
REMARK  115  A    between atoms: _261  and  _262
REMARK  116  A    between atoms: _265  and  _267
REMARK  117  A    between atoms: _267  and  _268
REMARK  118  A    between atoms: _267  and  _270
REMARK  119  A    between atoms: _272  and  _274
REMARK  120  A    between atoms: _274  and  _275
REMARK  121  A    between atoms: _274  and  _277
REMARK  122  A    between atoms: _277  and  _278
REMARK  123  A    between atoms: _281  and  _283
REMARK  124  A    between atoms: _283  and  _284
REMARK  125  A    between atoms: _283  and  _286
REMARK  126  A    between atoms: _286  and  _287
REMARK  127  A    between atoms: _290  and  _292
REMARK  128  A    between atoms: _292  and  _293
REMARK  129  A    between atoms: _292  and  _295
REMARK  130  A    between atoms: _295  and  _296
REMARK  131  A    between atoms: _301  and  _302
REMARK  132  A    between atoms: _304  and  _306
REMARK  133  A    between atoms: _306  and  _307
REMARK  134  A    between atoms: _306  and  _309
REMARK  135  A    between atoms: _309  and  _310
REMARK  136  A    between atoms: _313  and  _315
REMARK  137  A    between atoms: _315  and  _316
REMARK  138  A    between atoms: _315  and  _318
REMARK  139  A    between atoms: _320  and  _322
REMARK  140  A    between atoms: _322  and  _323
REMARK  141  A    between atoms: _322  and  _325
REMARK  142  A    between atoms: _325  and  _326
REMARK  143  A    between atoms: _329  and  _331
REMARK  144  A    between atoms: _331  and  _332
REMARK  145  A    between atoms: _334  and  _336
REMARK  146  A    between atoms: _336  and  _337
REMARK  147  A    between atoms: _336  and  _339
REMARK  148  A    between atoms: _339  and  _340
REMARK  149  A    between atoms: _340  and  _341
REMARK  150  A    between atoms: _341  and  _342
REMARK  151  A    between atoms: _342  and  _343
REMARK  152  A    between atoms: _347  and  _349
REMARK  153  A    between atoms: _349  and  _350
REMARK  154  A    between atoms: _349  and  _352
REMARK  155  A    between atoms: _352  and  _353
REMARK  156  A    between atoms: _358  and  _360
REMARK  157  A    between atoms: _360  and  _361
REMARK  158  A    between atoms: _360  and  _363
REMARK  159  A    between atoms: _363  and  _364
REMARK  160  A    between atoms: _367  and  _369
REMARK  161  A    between atoms: _369  and  _370
REMARK  162  A    between atoms: _369  and  _372
REMARK  163  A    between atoms: _372  and  _373
REMARK  164  A    between atoms: _383  and  _385
REMARK  165  A    between atoms: _385  and  _386
REMARK  166  A    between atoms: _385  and  _388
REMARK  167  A    between atoms: _388  and  _389
REMARK  168  A    between atoms: _389  and  _390
REMARK  169  A    between atoms: _390  and  _391
REMARK  170  A    between atoms: _391  and  _392
REMARK  171  A    between atoms: _397  and  _398
REMARK  172  A    between atoms: _403  and  _405
REMARK  173  A    between atoms: _405  and  _406
REMARK  174  A    between atoms: _409  and  _411
REMARK  175  A    between atoms: _411  and  _412
REMARK  176  A    between atoms: _411  and  _414
REMARK  177  A    between atoms: _417  and  _419
REMARK  178  A    between atoms: _419  and  _420
REMARK  179  A    between atoms: _419  and  _422
REMARK  180  A    between atoms: _422  and  _423
REMARK  181  A    between atoms: _423  and  _424
REMARK  182  A    between atoms: _427  and  _429
REMARK  183  A    between atoms: _429  and  _430
REMARK  184  A    between atoms: _433  and  _435
REMARK  185  A    between atoms: _435  and  _436
REMARK  186  A    between atoms: _435  and  _438
REMARK  187  A    between atoms: _438  and  _439
REMARK  188  A    between atoms: _444  and  _445
REMARK  189  A    between atoms: _447  and  _449
REMARK  190  A    between atoms: _449  and  _450
REMARK  191  A    between atoms: _452  and  _454
REMARK  192  A    between atoms: _454  and  _455
REMARK  193  A    between atoms: _454  and  _457
REMARK  194  A    between atoms: _457  and  _458
REMARK  195  A    between atoms: _458  and  _459
REMARK  196  A    between atoms: _462  and  _464
REMARK  197  A    between atoms: _464  and  _465
REMARK  198  A    between atoms: _464  and  _467
REMARK  199  A    between atoms: _467  and  _468
REMARK  200  A    between atoms: _474  and  _476
REMARK  201  A    between atoms: _476  and  _477
REMARK  202  A    between atoms: _476  and  _479
REMARK  203  A    between atoms: _479  and  _480
REMARK  204  A    between atoms: _483  and  _485
REMARK  205  A    between atoms: _485  and  _486
REMARK  206  A    between atoms: _485  and  _488
REMARK  207  A    between atoms: _488  and  _489
REMARK  208  A    between atoms: _489  and  _490
REMARK  209  A    between atoms: _492  and  _494
REMARK  210  A    between atoms: _494  and  _495
REMARK  211  A    between atoms: _494  and  _497
REMARK  212  A    between atoms: _497  and  _498
REMARK  213  A    between atoms: _504  and  _506
REMARK  214  A    between atoms: _506  and  _507
REMARK  215  A    between atoms: _506  and  _509
REMARK  216  A    between atoms: _509  and  _510
REMARK  217  A    between atoms: _510  and  _511
REMARK  218  A    between atoms: _514  and  _516
REMARK  219  A    between atoms: _516  and  _517
REMARK  220  A    between atoms: _516  and  _519
REMARK  221  A    between atoms: _519  and  _520
REMARK  222  A    between atoms: _523  and  _525
REMARK  223  A    between atoms: _525  and  _526
REMARK  224  A    between atoms: _525  and  _528
REMARK  225  A    between atoms: _528  and  _529
REMARK  226  A    between atoms: _532  and  _534
REMARK  227  A    between atoms: _534  and  _535
REMARK  228  A    between atoms: _534  and  _537
REMARK  229  A    between atoms: _537  and  _538
REMARK  230  A    between atoms: _544  and  _546
REMARK  231  A    between atoms: _546  and  _547
REMARK  232  A    between atoms: _546  and  _549
REMARK  233  A    between atoms: _552  and  _554
REMARK  234  A    between atoms: _554  and  _555
REMARK  235  A    between atoms: _559  and  _560
REMARK  236  A    between atoms: _565  and  _567
REMARK  237  A    between atoms: _567  and  _568
REMARK  238  A    between atoms: _567  and  _570
REMARK  239  A    between atoms: _570  and  _571
REMARK  240  A    between atoms: _574  and  _576
REMARK  241  A    between atoms: _576  and  _577
REMARK  242  A    between atoms: _576  and  _579
REMARK  243  A    between atoms: _579  and  _580
REMARK  244  A    between atoms: _587  and  _588
REMARK  245  A    between atoms: _593  and  _595
REMARK  246  A    between atoms: _595  and  _596
REMARK  247  A    between atoms: _595  and  _598
REMARK  248  A    between atoms: _601  and  _603
REMARK  249  A    between atoms: _603  and  _604
REMARK  250  A    between atoms: _607  and  _609
REMARK  251  A    between atoms: _609  and  _610
REMARK  252  A    between atoms: _609  and  _612
REMARK  253  A    between atoms: _612  and  _613
REMARK  254  A    between atoms: _618  and  _619
REMARK  255  A    between atoms: _621  and  _623
REMARK  256  A    between atoms: _623  and  _624
REMARK  257  A    between atoms: _623  and  _626
REMARK  258  A    between atoms: _626  and  _627
REMARK  259  A    between atoms: _632  and  _634
REMARK  260  A    between atoms: _634  and  _635
REMARK  261  A    between atoms: _634  and  _637
REMARK  262  A    between atoms: _637  and  _638
REMARK  263  A    between atoms: _641  and  _643
REMARK  264  A    between atoms: _643  and  _644
REMARK  265  A    between atoms: _643  and  _646
REMARK  266  A    between atoms: _646  and  _647
REMARK  267  A    between atoms: _650  and  _652
REMARK  268  A    between atoms: _652  and  _653
REMARK  269  A    between atoms: _652  and  _655
REMARK  270  A    between atoms: _655  and  _656
REMARK  271  A    between atoms: _656  and  _657
REMARK  272  A    between atoms: _657  and  _658
REMARK  273  A    between atoms: _658  and  _659
REMARK  274  A    between atoms: _663  and  _665
REMARK  275  A    between atoms: _665  and  _666
REMARK  276  A    between atoms: _665  and  _668
REMARK  277  A    between atoms: _668  and  _669
REMARK  278  A    between atoms: _675  and  _677
REMARK  279  A    between atoms: _677  and  _678
REMARK  280  A    between atoms: _677  and  _680
REMARK  281  A    between atoms: _680  and  _681
REMARK  282  A    between atoms: _684  and  _686
REMARK  283  A    between atoms: _686  and  _687
REMARK  284  A    between atoms: _686  and  _689
REMARK  285  A    between atoms: _689  and  _690
REMARK  286  A    between atoms: _692  and  _694
REMARK  287  A    between atoms: _694  and  _695
REMARK  288  A    between atoms: _694  and  _697
REMARK  289  A    between atoms: _697  and  _698
REMARK  290  A    between atoms: _701  and  _703
REMARK  291  A    between atoms: _703  and  _704
REMARK  292  A    between atoms: _703  and  _706
REMARK  293  A    between atoms: _706  and  _707
REMARK  294  A    between atoms: _707  and  _708
REMARK  295  A    between atoms: _708  and  _709
REMARK  296  A    between atoms: _718  and  _720
REMARK  297  A    between atoms: _720  and  _721
REMARK  298  A    between atoms: _720  and  _723
REMARK  299  A    between atoms: _723  and  _724
REMARK  300  A    between atoms: _724  and  _725
REMARK  301  A    between atoms: _725  and  _726
REMARK  302  A    between atoms: _726  and  _727
REMARK  303  A    between atoms: _731  and  _733
REMARK  304  A    between atoms: _733  and  _734
REMARK  305  A    between atoms: _733  and  _736
REMARK  306  A    between atoms: _736  and  _737
REMARK  307  A    between atoms: _740  and  _742
REMARK  308  A    between atoms: _742  and  _743
REMARK  309  A    between atoms: _742  and  _745
REMARK  310  A    between atoms: _745  and  _746
REMARK  311  A    between atoms: _746  and  _747
REMARK  312  A    between atoms: _749  and  _751
REMARK  313  A    between atoms: _751  and  _752
REMARK  314  A    between atoms: _751  and  _754
REMARK  315  A    between atoms: _757  and  _759
REMARK  316  A    between atoms: _759  and  _760
REMARK  317  A    between atoms: _759  and  _762
REMARK  318  A    between atoms: _762  and  _763
REMARK                            x       y       z     vdW  Elec       q    Type
REMARK                         _______ _______ _______ _____ _____    ______ ____
ROOT
ATOM      1  O   HOH     1       8.136  -4.408   9.127  0.00  0.00    +0.000 OA
ENDROOT
TORSDOF 0
REMARK  Name = ../refined-set-2016/4omk/4omk_pocket.pdb
REMARK  318 active torsions:
REMARK  status: ('A' for Active; 'I' for Inactive)
REMARK    1  A    between atoms: _1  and  _3
REMARK    2  A    between atoms: _3  and  _4
REMARK    3  A    between atoms: _3  and  _6
REMARK    4  A    between atoms: _6  and  _7
REMARK    5  A    between atoms: _10  and  _12
REMARK    6  A    between atoms: _12  and  _13
REMARK    7  A    between atoms: _12  and  _15
REMARK    8  A    between atoms: _15  and  _16
REMARK    9  A    between atoms: _21  and  _22
REMARK   10  A    between atoms: _24  and  _26
REMARK   11  A    between atoms: _26  and  _27
REMARK   12  A    between atoms: _26  and  _29
REMARK   13  A    between atoms: _29  and  _30
REMARK   14  A    between atoms: _33  and  _35
REMARK   15  A    between atoms: _35  and  _36
REMARK   16  A    between atoms: _35  and  _38
REMARK   17  A    between atoms: _38  and  _39
REMARK   18  A    between atoms: _41  and  _43
REMARK   19  A    between atoms: _43  and  _44
REMARK   20  A    between atoms: _43  and  _46
REMARK   21  A    between atoms: _46  and  _47
REMARK   22  A    between atoms: _57  and  _59
REMARK   23  A    between atoms: _59  and  _60
REMARK   24  A    between atoms: _59  and  _62
REMARK   25  A    between atoms: _62  and  _63
REMARK   26  A    between atoms: _66  and  _68
REMARK   27  A    between atoms: _68  and  _69
REMARK   28  A    between atoms: _68  and  _71
REMARK   29  A    between atoms: _71  and  _72
REMARK   30  A    between atoms: _75  and  _77
REMARK   31  A    between atoms: _77  and  _78
REMARK   32  A    between atoms: _77  and  _80
REMARK   33  A    between atoms: _80  and  _81
REMARK   34  A    between atoms: _84  and  _86
REMARK   35  A    between atoms: _86  and  _87
REMARK   36  A    between atoms: _86  and  _89
REMARK   37  A    between atoms: _89  and  _90
REMARK   38  A    between atoms: _93  and  _95
REMARK   39  A    between atoms: _95  and  _96
REMARK   40  A    between atoms: _99  and  _101
REMARK   41  A    between atoms: _101  and  _102
REMARK   42  A    between atoms: _101  and  _104
REMARK   43  A    between atoms: _104  and  _105
REMARK   44  A    between atoms: _105  and  _106
REMARK   45  A    between atoms: _106  and  _107
REMARK   46  A    between atoms: _107  and  _108
REMARK   47  A    between atoms: _112  and  _114
REMARK   48  A    between atoms: _114  and  _115
REMARK   49  A    between atoms: _117  and  _119
REMARK   50  A    between atoms: _119  and  _120
REMARK   51  A    between atoms: _119  and  _122
REMARK   52  A    between atoms: _122  and  _123
REMARK   53  A    between atoms: _126  and  _128
REMARK   54  A    between atoms: _128  and  _129
REMARK   55  A    between atoms: _128  and  _131
REMARK   56  A    between atoms: _131  and  _132
REMARK   57  A    between atoms: _135  and  _137
REMARK   58  A    between atoms: _137  and  _138
REMARK   59  A    between atoms: _137  and  _140
REMARK   60  A    between atoms: _140  and  _141
REMARK   61  A    between atoms: _147  and  _149
REMARK   62  A    between atoms: _149  and  _150
REMARK   63  A    between atoms: _149  and  _152
REMARK   64  A    between atoms: _152  and  _153
REMARK   65  A    between atoms: _155  and  _157
REMARK   66  A    between atoms: _157  and  _158
REMARK   67  A    between atoms: _157  and  _160
REMARK   68  A    between atoms: _160  and  _161
REMARK   69  A    between atoms: _161  and  _162
REMARK   70  A    between atoms: _162  and  _163
REMARK   71  A    between atoms: _163  and  _164
REMARK   72  A    between atoms: _168  and  _170
REMARK   73  A    between atoms: _170  and  _171
REMARK   74  A    between atoms: _170  and  _173
REMARK   75  A    between atoms: _173  and  _174
REMARK   76  A    between atoms: _174  and  _175
REMARK   77  A    between atoms: _180  and  _182
REMARK   78  A    between atoms: _182  and  _183
REMARK   79  A    between atoms: _182  and  _185
REMARK   80  A    between atoms: _185  and  _186
REMARK   81  A    between atoms: _189  and  _191
REMARK   82  A    between atoms: _191  and  _192
REMARK   83  A    between atoms: _191  and  _194
REMARK   84  A    between atoms: _194  and  _195
REMARK   85  A    between atoms: _198  and  _200
REMARK   86  A    between atoms: _200  and  _201
REMARK   87  A    between atoms: _200  and  _203
REMARK   88  A    between atoms: _203  and  _204
REMARK   89  A    between atoms: _207  and  _209
REMARK   90  A    between atoms: _209  and  _210
REMARK   91  A    between atoms: _209  and  _212
REMARK   92  A    between atoms: _212  and  _213
REMARK   93  A    between atoms: _213  and  _214
REMARK   94  A    between atoms: _214  and  _215
REMARK   95  A    between atoms: _224  and  _226
REMARK   96  A    between atoms: _226  and  _227
REMARK   97  A    between atoms: _226  and  _229
REMARK   98  A    between atoms: _229  and  _230
REMARK   99  A    between atoms: _233  and  _235
REMARK  100  A    between atoms: _235  and  _236
REMARK  101  A    between atoms: _235  and  _238
REMARK  102  A    between atoms: _238  and  _239
REMARK  103  A    between atoms: _239  and  _240
REMARK  104  A    between atoms: _240  and  _241
REMARK  105  A    between atoms: _241  and  _242
REMARK  106  A    between atoms: _246  and  _248
REMARK  107  A    between atoms: _248  and  _249
REMARK  108  A    between atoms: _248  and  _251
REMARK  109  A    between atoms: _251  and  _252
REMARK  110  A    between atoms: _252  and  _253
REMARK  111  A    between atoms: _255  and  _257
REMARK  112  A    between atoms: _257  and  _258
REMARK  113  A    between atoms: _257  and  _260
REMARK  114  A    between atoms: _260  and  _261
REMARK  115  A    between atoms: _261  and  _262
REMARK  116  A    between atoms: _265  and  _267
REMARK  117  A    between atoms: _267  and  _268
REMARK  118  A    between atoms: _267  and  _270
REMARK  119  A    between atoms: _272  and  _274
REMARK  120  A    between atoms: _274  and  _275
REMARK  121  A    between atoms: _274  and  _277
REMARK  122  A    between atoms: _277  and  _278
REMARK  123  A    between atoms: _281  and  _283
REMARK  124  A    between atoms: _283  and  _284
REMARK  125  A    between atoms: _283  and  _286
REMARK  126  A    between atoms: _286  and  _287
REMARK  127  A    between atoms: _290  and  _292
REMARK  128  A    between atoms: _292  and  _293
REMARK  129  A    between atoms: _292  and  _295
REMARK  130  A    between atoms: _295  and  _296
REMARK  131  A    between atoms: _301  and  _302
REMARK  132  A    between atoms: _304  and  _306
REMARK  133  A    between atoms: _306  and  _307
REMARK  134  A    between atoms: _306  and  _309
REMARK  135  A    between atoms: _309  and  _310
REMARK  136  A    between atoms: _313  and  _315
REMARK  137  A    between atoms: _315  and  _316
REMARK  138  A    between atoms: _315  and  _318
REMARK  139  A    between atoms: _320  and  _322
REMARK  140  A    between atoms: _322  and  _323
REMARK  141  A    between atoms: _322  and  _325
REMARK  142  A    between atoms: _325  and  _326
REMARK  143  A    between atoms: _329  and  _331
REMARK  144  A    between atoms: _331  and  _332
REMARK  145  A    between atoms: _334  and  _336
REMARK  146  A    between atoms: _336  and  _337
REMARK  147  A    between atoms: _336  and  _339
REMARK  148  A    between atoms: _339  and  _340
REMARK  149  A    between atoms: _340  and  _341
REMARK  150  A    between atoms: _341  and  _342
REMARK  151  A    between atoms: _342  and  _343
REMARK  152  A    between atoms: _347  and  _349
REMARK  153  A    between atoms: _349  and  _350
REMARK  154  A    between atoms: _349  and  _352
REMARK  155  A    between atoms: _352  and  _353
REMARK  156  A    between atoms: _358  and  _360
REMARK  157  A    between atoms: _360  and  _361
REMARK  158  A    between atoms: _360  and  _363
REMARK  159  A    between atoms: _363  and  _364
REMARK  160  A    between atoms: _367  and  _369
REMARK  161  A    between atoms: _369  and  _370
REMARK  162  A    between atoms: _369  and  _372
REMARK  163  A    between atoms: _372  and  _373
REMARK  164  A    between atoms: _383  and  _385
REMARK  165  A    between atoms: _385  and  _386
REMARK  166  A    between atoms: _385  and  _388
REMARK  167  A    between atoms: _388  and  _389
REMARK  168  A    between atoms: _389  and  _390
REMARK  169  A    between atoms: _390  and  _391
REMARK  170  A    between atoms: _391  and  _392
REMARK  171  A    between atoms: _397  and  _398
REMARK  172  A    between atoms: _403  and  _405
REMARK  173  A    between atoms: _405  and  _406
REMARK  174  A    between atoms: _409  and  _411
REMARK  175  A    between atoms: _411  and  _412
REMARK  176  A    between atoms: _411  and  _414
REMARK  177  A    between atoms: _417  and  _419
REMARK  178  A    between atoms: _419  and  _420
REMARK  179  A    between atoms: _419  and  _422
REMARK  180  A    between atoms: _422  and  _423
REMARK  181  A    between atoms: _423  and  _424
REMARK  182  A    between atoms: _427  and  _429
REMARK  183  A    between atoms: _429  and  _430
REMARK  184  A    between atoms: _433  and  _435
REMARK  185  A    between atoms: _435  and  _436
REMARK  186  A    between atoms: _435  and  _438
REMARK  187  A    between atoms: _438  and  _439
REMARK  188  A    between atoms: _444  and  _445
REMARK  189  A    between atoms: _447  and  _449
REMARK  190  A    between atoms: _449  and  _450
REMARK  191  A    between atoms: _452  and  _454
REMARK  192  A    between atoms: _454  and  _455
REMARK  193  A    between atoms: _454  and  _457
REMARK  194  A    between atoms: _457  and  _458
REMARK  195  A    between atoms: _458  and  _459
REMARK  196  A    between atoms: _462  and  _464
REMARK  197  A    between atoms: _464  and  _465
REMARK  198  A    between atoms: _464  and  _467
REMARK  199  A    between atoms: _467  and  _468
REMARK  200  A    between atoms: _474  and  _476
REMARK  201  A    between atoms: _476  and  _477
REMARK  202  A    between atoms: _476  and  _479
REMARK  203  A    between atoms: _479  and  _480
REMARK  204  A    between atoms: _483  and  _485
REMARK  205  A    between atoms: _485  and  _486
REMARK  206  A    between atoms: _485  and  _488
REMARK  207  A    between atoms: _488  and  _489
REMARK  208  A    between atoms: _489  and  _490
REMARK  209  A    between atoms: _492  and  _494
REMARK  210  A    between atoms: _494  and  _495
REMARK  211  A    between atoms: _494  and  _497
REMARK  212  A    between atoms: _497  and  _498
REMARK  213  A    between atoms: _504  and  _506
REMARK  214  A    between atoms: _506  and  _507
REMARK  215  A    between atoms: _506  and  _509
REMARK  216  A    between atoms: _509  and  _510
REMARK  217  A    between atoms: _510  and  _511
REMARK  218  A    between atoms: _514  and  _516
REMARK  219  A    between atoms: _516  and  _517
REMARK  220  A    between atoms: _516  and  _519
REMARK  221  A    between atoms: _519  and  _520
REMARK  222  A    between atoms: _523  and  _525
REMARK  223  A    between atoms: _525  and  _526
REMARK  224  A    between atoms: _525  and  _528
REMARK  225  A    between atoms: _528  and  _529
REMARK  226  A    between atoms: _532  and  _534
REMARK  227  A    between atoms: _534  and  _535
REMARK  228  A    between atoms: _534  and  _537
REMARK  229  A    between atoms: _537  and  _538
REMARK  230  A    between atoms: _544  and  _546
REMARK  231  A    between atoms: _546  and  _547
REMARK  232  A    between atoms: _546  and  _549
REMARK  233  A    between atoms: _552  and  _554
REMARK  234  A    between atoms: _554  and  _555
REMARK  235  A    between atoms: _559  and  _560
REMARK  236  A    between atoms: _565  and  _567
REMARK  237  A    between atoms: _567  and  _568
REMARK  238  A    between atoms: _567  and  _570
REMARK  239  A    between atoms: _570  and  _571
REMARK  240  A    between atoms: _574  and  _576
REMARK  241  A    between atoms: _576  and  _577
REMARK  242  A    between atoms: _576  and  _579
REMARK  243  A    between atoms: _579  and  _580
REMARK  244  A    between atoms: _587  and  _588
REMARK  245  A    between atoms: _593  and  _595
REMARK  246  A    between atoms: _595  and  _596
REMARK  247  A    between atoms: _595  and  _598
REMARK  248  A    between atoms: _601  and  _603
REMARK  249  A    between atoms: _603  and  _604
REMARK  250  A    between atoms: _607  and  _609
REMARK  251  A    between atoms: _609  and  _610
REMARK  252  A    between atoms: _609  and  _612
REMARK  253  A    between atoms: _612  and  _613
REMARK  254  A    between atoms: _618  and  _619
REMARK  255  A    between atoms: _621  and  _623
REMARK  256  A    between atoms: _623  and  _624
REMARK  257  A    between atoms: _623  and  _626
REMARK  258  A    between atoms: _626  and  _627
REMARK  259  A    between atoms: _632  and  _634
REMARK  260  A    between atoms: _634  and  _635
REMARK  261  A    between atoms: _634  and  _637
REMARK  262  A    between atoms: _637  and  _638
REMARK  263  A    between atoms: _641  and  _643
REMARK  264  A    between atoms: _643  and  _644
REMARK  265  A    between atoms: _643  and  _646
REMARK  266  A    between atoms: _646  and  _647
REMARK  267  A    between atoms: _650  and  _652
REMARK  268  A    between atoms: _652  and  _653
REMARK  269  A    between atoms: _652  and  _655
REMARK  270  A    between atoms: _655  and  _656
REMARK  271  A    between atoms: _656  and  _657
REMARK  272  A    between atoms: _657  and  _658
REMARK  273  A    between atoms: _658  and  _659
REMARK  274  A    between atoms: _663  and  _665
REMARK  275  A    between atoms: _665  and  _666
REMARK  276  A    between atoms: _665  and  _668
REMARK  277  A    between atoms: _668  and  _669
REMARK  278  A    between atoms: _675  and  _677
REMARK  279  A    between atoms: _677  and  _678
REMARK  280  A    between atoms: _677  and  _680
REMARK  281  A    between atoms: _680  and  _681
REMARK  282  A    between atoms: _684  and  _686
REMARK  283  A    between atoms: _686  and  _687
REMARK  284  A    between atoms: _686  and  _689
REMARK  285  A    between atoms: _689  and  _690
REMARK  286  A    between atoms: _692  and  _694
REMARK  287  A    between atoms: _694  and  _695
REMARK  288  A    between atoms: _694  and  _697
REMARK  289  A    between atoms: _697  and  _698
REMARK  290  A    between atoms: _701  and  _703
REMARK  291  A    between atoms: _703  and  _704
REMARK  292  A    between atoms: _703  and  _706
REMARK  293  A    between atoms: _706  and  _707
REMARK  294  A    between atoms: _707  and  _708
REMARK  295  A    between atoms: _708  and  _709
REMARK  296  A    between atoms: _718  and  _720
REMARK  297  A    between atoms: _720  and  _721
REMARK  298  A    between atoms: _720  and  _723
REMARK  299  A    between atoms: _723  and  _724
REMARK  300  A    between atoms: _724  and  _725
REMARK  301  A    between atoms: _725  and  _726
REMARK  302  A    between atoms: _726  and  _727
REMARK  303  A    between atoms: _731  and  _733
REMARK  304  A    between atoms: _733  and  _734
REMARK  305  A    between atoms: _733  and  _736
REMARK  306  A    between atoms: _736  and  _737
REMARK  307  A    between atoms: _740  and  _742
REMARK  308  A    between atoms: _742  and  _743
REMARK  309  A    between atoms: _742  and  _745
REMARK  310  A    between atoms: _745  and  _746
REMARK  311  A    between atoms: _746  and  _747
REMARK  312  A    between atoms: _749  and  _751
REMARK  313  A    between atoms: _751  and  _752
REMARK  314  A    between atoms: _751  and  _754
REMARK  315  A    between atoms: _757  and  _759
REMARK  316  A    between atoms: _759  and  _760
REMARK  317  A    between atoms: _759  and  _762
REMARK  318  A    between atoms: _762  and  _763
REMARK                            x       y       z     vdW  Elec       q    Type
REMARK                         _______ _______ _______ _____ _____    ______ ____
ROOT
ATOM      1  O   HOH     1      19.632  13.646  -3.398  0.00  0.00    +0.000 OA
ENDROOT
TORSDOF 0
REMARK  Name = ../refined-set-2016/4omk/4omk_pocket.pdb
REMARK  318 active torsions:
REMARK  status: ('A' for Active; 'I' for Inactive)
REMARK    1  A    between atoms: _1  and  _3
REMARK    2  A    between atoms: _3  and  _4
REMARK    3  A    between atoms: _3  and  _6
REMARK    4  A    between atoms: _6  and  _7
REMARK    5  A    between atoms: _10  and  _12
REMARK    6  A    between atoms: _12  and  _13
REMARK    7  A    between atoms: _12  and  _15
REMARK    8  A    between atoms: _15  and  _16
REMARK    9  A    between atoms: _21  and  _22
REMARK   10  A    between atoms: _24  and  _26
REMARK   11  A    between atoms: _26  and  _27
REMARK   12  A    between atoms: _26  and  _29
REMARK   13  A    between atoms: _29  and  _30
REMARK   14  A    between atoms: _33  and  _35
REMARK   15  A    between atoms: _35  and  _36
REMARK   16  A    between atoms: _35  and  _38
REMARK   17  A    between atoms: _38  and  _39
REMARK   18  A    between atoms: _41  and  _43
REMARK   19  A    between atoms: _43  and  _44
REMARK   20  A    between atoms: _43  and  _46
REMARK   21  A    between atoms: _46  and  _47
REMARK   22  A    between atoms: _57  and  _59
REMARK   23  A    between atoms: _59  and  _60
REMARK   24  A    between atoms: _59  and  _62
REMARK   25  A    between atoms: _62  and  _63
REMARK   26  A    between atoms: _66  and  _68
REMARK   27  A    between atoms: _68  and  _69
REMARK   28  A    between atoms: _68  and  _71
REMARK   29  A    between atoms: _71  and  _72
REMARK   30  A    between atoms: _75  and  _77
REMARK   31  A    between atoms: _77  and  _78
REMARK   32  A    between atoms: _77  and  _80
REMARK   33  A    between atoms: _80  and  _81
REMARK   34  A    between atoms: _84  and  _86
REMARK   35  A    between atoms: _86  and  _87
REMARK   36  A    between atoms: _86  and  _89
REMARK   37  A    between atoms: _89  and  _90
REMARK   38  A    between atoms: _93  and  _95
REMARK   39  A    between atoms: _95  and  _96
REMARK   40  A    between atoms: _99  and  _101
REMARK   41  A    between atoms: _101  and  _102
REMARK   42  A    between atoms: _101  and  _104
REMARK   43  A    between atoms: _104  and  _105
REMARK   44  A    between atoms: _105  and  _106
REMARK   45  A    between atoms: _106  and  _107
REMARK   46  A    between atoms: _107  and  _108
REMARK   47  A    between atoms: _112  and  _114
REMARK   48  A    between atoms: _114  and  _115
REMARK   49  A    between atoms: _117  and  _119
REMARK   50  A    between atoms: _119  and  _120
REMARK   51  A    between atoms: _119  and  _122
REMARK   52  A    between atoms: _122  and  _123
REMARK   53  A    between atoms: _126  and  _128
REMARK   54  A    between atoms: _128  and  _129
REMARK   55  A    between atoms: _128  and  _131
REMARK   56  A    between atoms: _131  and  _132
REMARK   57  A    between atoms: _135  and  _137
REMARK   58  A    between atoms: _137  and  _138
REMARK   59  A    between atoms: _137  and  _140
REMARK   60  A    between atoms: _140  and  _141
REMARK   61  A    between atoms: _147  and  _149
REMARK   62  A    between atoms: _149  and  _150
REMARK   63  A    between atoms: _149  and  _152
REMARK   64  A    between atoms: _152  and  _153
REMARK   65  A    between atoms: _155  and  _157
REMARK   66  A    between atoms: _157  and  _158
REMARK   67  A    between atoms: _157  and  _160
REMARK   68  A    between atoms: _160  and  _161
REMARK   69  A    between atoms: _161  and  _162
REMARK   70  A    between atoms: _162  and  _163
REMARK   71  A    between atoms: _163  and  _164
REMARK   72  A    between atoms: _168  and  _170
REMARK   73  A    between atoms: _170  and  _171
REMARK   74  A    between atoms: _170  and  _173
REMARK   75  A    between atoms: _173  and  _174
REMARK   76  A    between atoms: _174  and  _175
REMARK   77  A    between atoms: _180  and  _182
REMARK   78  A    between atoms: _182  and  _183
REMARK   79  A    between atoms: _182  and  _185
REMARK   80  A    between atoms: _185  and  _186
REMARK   81  A    between atoms: _189  and  _191
REMARK   82  A    between atoms: _191  and  _192
REMARK   83  A    between atoms: _191  and  _194
REMARK   84  A    between atoms: _194  and  _195
REMARK   85  A    between atoms: _198  and  _200
REMARK   86  A    between atoms: _200  and  _201
REMARK   87  A    between atoms: _200  and  _203
REMARK   88  A    between atoms: _203  and  _204
REMARK   89  A    between atoms: _207  and  _209
REMARK   90  A    between atoms: _209  and  _210
REMARK   91  A    between atoms: _209  and  _212
REMARK   92  A    between atoms: _212  and  _213
REMARK   93  A    between atoms: _213  and  _214
REMARK   94  A    between atoms: _214  and  _215
REMARK   95  A    between atoms: _224  and  _226
REMARK   96  A    between atoms: _226  and  _227
REMARK   97  A    between atoms: _226  and  _229
REMARK   98  A    between atoms: _229  and  _230
REMARK   99  A    between atoms: _233  and  _235
REMARK  100  A    between atoms: _235  and  _236
REMARK  101  A    between atoms: _235  and  _238
REMARK  102  A    between atoms: _238  and  _239
REMARK  103  A    between atoms: _239  and  _240
REMARK  104  A    between atoms: _240  and  _241
REMARK  105  A    between atoms: _241  and  _242
REMARK  106  A    between atoms: _246  and  _248
REMARK  107  A    between atoms: _248  and  _249
REMARK  108  A    between atoms: _248  and  _251
REMARK  109  A    between atoms: _251  and  _252
REMARK  110  A    between atoms: _252  and  _253
REMARK  111  A    between atoms: _255  and  _257
REMARK  112  A    between atoms: _257  and  _258
REMARK  113  A    between atoms: _257  and  _260
REMARK  114  A    between atoms: _260  and  _261
REMARK  115  A    between atoms: _261  and  _262
REMARK  116  A    between atoms: _265  and  _267
REMARK  117  A    between atoms: _267  and  _268
REMARK  118  A    between atoms: _267  and  _270
REMARK  119  A    between atoms: _272  and  _274
REMARK  120  A    between atoms: _274  and  _275
REMARK  121  A    between atoms: _274  and  _277
REMARK  122  A    between atoms: _277  and  _278
REMARK  123  A    between atoms: _281  and  _283
REMARK  124  A    between atoms: _283  and  _284
REMARK  125  A    between atoms: _283  and  _286
REMARK  126  A    between atoms: _286  and  _287
REMARK  127  A    between atoms: _290  and  _292
REMARK  128  A    between atoms: _292  and  _293
REMARK  129  A    between atoms: _292  and  _295
REMARK  130  A    between atoms: _295  and  _296
REMARK  131  A    between atoms: _301  and  _302
REMARK  132  A    between atoms: _304  and  _306
REMARK  133  A    between atoms: _306  and  _307
REMARK  134  A    between atoms: _306  and  _309
REMARK  135  A    between atoms: _309  and  _310
REMARK  136  A    between atoms: _313  and  _315
REMARK  137  A    between atoms: _315  and  _316
REMARK  138  A    between atoms: _315  and  _318
REMARK  139  A    between atoms: _320  and  _322
REMARK  140  A    between atoms: _322  and  _323
REMARK  141  A    between atoms: _322  and  _325
REMARK  142  A    between atoms: _325  and  _326
REMARK  143  A    between atoms: _329  and  _331
REMARK  144  A    between atoms: _331  and  _332
REMARK  145  A    between atoms: _334  and  _336
REMARK  146  A    between atoms: _336  and  _337
REMARK  147  A    between atoms: _336  and  _339
REMARK  148  A    between atoms: _339  and  _340
REMARK  149  A    between atoms: _340  and  _341
REMARK  150  A    between atoms: _341  and  _342
REMARK  151  A    between atoms: _342  and  _343
REMARK  152  A    between atoms: _347  and  _349
REMARK  153  A    between atoms: _349  and  _350
REMARK  154  A    between atoms: _349  and  _352
REMARK  155  A    between atoms: _352  and  _353
REMARK  156  A    between atoms: _358  and  _360
REMARK  157  A    between atoms: _360  and  _361
REMARK  158  A    between atoms: _360  and  _363
REMARK  159  A    between atoms: _363  and  _364
REMARK  160  A    between atoms: _367  and  _369
REMARK  161  A    between atoms: _369  and  _370
REMARK  162  A    between atoms: _369  and  _372
REMARK  163  A    between atoms: _372  and  _373
REMARK  164  A    between atoms: _383  and  _385
REMARK  165  A    between atoms: _385  and  _386
REMARK  166  A    between atoms: _385  and  _388
REMARK  167  A    between atoms: _388  and  _389
REMARK  168  A    between atoms: _389  and  _390
REMARK  169  A    between atoms: _390  and  _391
REMARK  170  A    between atoms: _391  and  _392
REMARK  171  A    between atoms: _397  and  _398
REMARK  172  A    between atoms: _403  and  _405
REMARK  173  A    between atoms: _405  and  _406
REMARK  174  A    between atoms: _409  and  _411
REMARK  175  A    between atoms: _411  and  _412
REMARK  176  A    between atoms: _411  and  _414
REMARK  177  A    between atoms: _417  and  _419
REMARK  178  A    between atoms: _419  and  _420
REMARK  179  A    between atoms: _419  and  _422
REMARK  180  A    between atoms: _422  and  _423
REMARK  181  A    between atoms: _423  and  _424
REMARK  182  A    between atoms: _427  and  _429
REMARK  183  A    between atoms: _429  and  _430
REMARK  184  A    between atoms: _433  and  _435
REMARK  185  A    between atoms: _435  and  _436
REMARK  186  A    between atoms: _435  and  _438
REMARK  187  A    between atoms: _438  and  _439
REMARK  188  A    between atoms: _444  and  _445
REMARK  189  A    between atoms: _447  and  _449
REMARK  190  A    between atoms: _449  and  _450
REMARK  191  A    between atoms: _452  and  _454
REMARK  192  A    between atoms: _454  and  _455
REMARK  193  A    between atoms: _454  and  _457
REMARK  194  A    between atoms: _457  and  _458
REMARK  195  A    between atoms: _458  and  _459
REMARK  196  A    between atoms: _462  and  _464
REMARK  197  A    between atoms: _464  and  _465
REMARK  198  A    between atoms: _464  and  _467
REMARK  199  A    between atoms: _467  and  _468
REMARK  200  A    between atoms: _474  and  _476
REMARK  201  A    between atoms: _476  and  _477
REMARK  202  A    between atoms: _476  and  _479
REMARK  203  A    between atoms: _479  and  _480
REMARK  204  A    between atoms: _483  and  _485
REMARK  205  A    between atoms: _485  and  _486
REMARK  206  A    between atoms: _485  and  _488
REMARK  207  A    between atoms: _488  and  _489
REMARK  208  A    between atoms: _489  and  _490
REMARK  209  A    between atoms: _492  and  _494
REMARK  210  A    between atoms: _494  and  _495
REMARK  211  A    between atoms: _494  and  _497
REMARK  212  A    between atoms: _497  and  _498
REMARK  213  A    between atoms: _504  and  _506
REMARK  214  A    between atoms: _506  and  _507
REMARK  215  A    between atoms: _506  and  _509
REMARK  216  A    between atoms: _509  and  _510
REMARK  217  A    between atoms: _510  and  _511
REMARK  218  A    between atoms: _514  and  _516
REMARK  219  A    between atoms: _516  and  _517
REMARK  220  A    between atoms: _516  and  _519
REMARK  221  A    between atoms: _519  and  _520
REMARK  222  A    between atoms: _523  and  _525
REMARK  223  A    between atoms: _525  and  _526
REMARK  224  A    between atoms: _525  and  _528
REMARK  225  A    between atoms: _528  and  _529
REMARK  226  A    between atoms: _532  and  _534
REMARK  227  A    between atoms: _534  and  _535
REMARK  228  A    between atoms: _534  and  _537
REMARK  229  A    between atoms: _537  and  _538
REMARK  230  A    between atoms: _544  and  _546
REMARK  231  A    between atoms: _546  and  _547
REMARK  232  A    between atoms: _546  and  _549
REMARK  233  A    between atoms: _552  and  _554
REMARK  234  A    between atoms: _554  and  _555
REMARK  235  A    between atoms: _559  and  _560
REMARK  236  A    between atoms: _565  and  _567
REMARK  237  A    between atoms: _567  and  _568
REMARK  238  A    between atoms: _567  and  _570
REMARK  239  A    between atoms: _570  and  _571
REMARK  240  A    between atoms: _574  and  _576
REMARK  241  A    between atoms: _576  and  _577
REMARK  242  A    between atoms: _576  and  _579
REMARK  243  A    between atoms: _579  and  _580
REMARK  244  A    between atoms: _587  and  _588
REMARK  245  A    between atoms: _593  and  _595
REMARK  246  A    between atoms: _595  and  _596
REMARK  247  A    between atoms: _595  and  _598
REMARK  248  A    between atoms: _601  and  _603
REMARK  249  A    between atoms: _603  and  _604
REMARK  250  A    between atoms: _607  and  _609
REMARK  251  A    between atoms: _609  and  _610
REMARK  252  A    between atoms: _609  and  _612
REMARK  253  A    between atoms: _612  and  _613
REMARK  254  A    between atoms: _618  and  _619
REMARK  255  A    between atoms: _621  and  _623
REMARK  256  A    between atoms: _623  and  _624
REMARK  257  A    between atoms: _623  and  _626
REMARK  258  A    between atoms: _626  and  _627
REMARK  259  A    between atoms: _632  and  _634
REMARK  260  A    between atoms: _634  and  _635
REMARK  261  A    between atoms: _634  and  _637
REMARK  262  A    between atoms: _637  and  _638
REMARK  263  A    between atoms: _641  and  _643
REMARK  264  A    between atoms: _643  and  _644
REMARK  265  A    between atoms: _643  and  _646
REMARK  266  A    between atoms: _646  and  _647
REMARK  267  A    between atoms: _650  and  _652
REMARK  268  A    between atoms: _652  and  _653
REMARK  269  A    between atoms: _652  and  _655
REMARK  270  A    between atoms: _655  and  _656
REMARK  271  A    between atoms: _656  and  _657
REMARK  272  A    between atoms: _657  and  _658
REMARK  273  A    between atoms: _658  and  _659
REMARK  274  A    between atoms: _663  and  _665
REMARK  275  A    between atoms: _665  and  _666
REMARK  276  A    between atoms: _665  and  _668
REMARK  277  A    between atoms: _668  and  _669
REMARK  278  A    between atoms: _675  and  _677
REMARK  279  A    between atoms: _677  and  _678
REMARK  280  A    between atoms: _677  and  _680
REMARK  281  A    between atoms: _680  and  _681
REMARK  282  A    between atoms: _684  and  _686
REMARK  283  A    between atoms: _686  and  _687
REMARK  284  A    between atoms: _686  and  _689
REMARK  285  A    between atoms: _689  and  _690
REMARK  286  A    between atoms: _692  and  _694
REMARK  287  A    between atoms: _694  and  _695
REMARK  288  A    between atoms: _694  and  _697
REMARK  289  A    between atoms: _697  and  _698
REMARK  290  A    between atoms: _701  and  _703
REMARK  291  A    between atoms: _703  and  _704
REMARK  292  A    between atoms: _703  and  _706
REMARK  293  A    between atoms: _706  and  _707
REMARK  294  A    between atoms: _707  and  _708
REMARK  295  A    between atoms: _708  and  _709
REMARK  296  A    between atoms: _718  and  _720
REMARK  297  A    between atoms: _720  and  _721
REMARK  298  A    between atoms: _720  and  _723
REMARK  299  A    between atoms: _723  and  _724
REMARK  300  A    between atoms: _724  and  _725
REMARK  301  A    between atoms: _725  and  _726
REMARK  302  A    between atoms: _726  and  _727
REMARK  303  A    between atoms: _731  and  _733
REMARK  304  A    between atoms: _733  and  _734
REMARK  305  A    between atoms: _733  and  _736
REMARK  306  A    between atoms: _736  and  _737
REMARK  307  A    between atoms: _740  and  _742
REMARK  308  A    between atoms: _742  and  _743
REMARK  309  A    between atoms: _742  and  _745
REMARK  310  A    between atoms: _745  and  _746
REMARK  311  A    between atoms: _746  and  _747
REMARK  312  A    between atoms: _749  and  _751
REMARK  313  A    between atoms: _751  and  _752
REMARK  314  A    between atoms: _751  and  _754
REMARK  315  A    between atoms: _757  and  _759
REMARK  316  A    between atoms: _759  and  _760
REMARK  317  A    between atoms: _759  and  _762
REMARK  318  A    between atoms: _762  and  _763
REMARK                            x       y       z     vdW  Elec       q    Type
REMARK                         _______ _______ _______ _____ _____    ______ ____
ROOT
ATOM      1  O   HOH     1      12.649  17.830  10.197  0.00  0.00    +0.000 OA
ENDROOT
TORSDOF 0
REMARK  Name = ../refined-set-2016/4omk/4omk_pocket.pdb
REMARK  318 active torsions:
REMARK  status: ('A' for Active; 'I' for Inactive)
REMARK    1  A    between atoms: _1  and  _3
REMARK    2  A    between atoms: _3  and  _4
REMARK    3  A    between atoms: _3  and  _6
REMARK    4  A    between atoms: _6  and  _7
REMARK    5  A    between atoms: _10  and  _12
REMARK    6  A    between atoms: _12  and  _13
REMARK    7  A    between atoms: _12  and  _15
REMARK    8  A    between atoms: _15  and  _16
REMARK    9  A    between atoms: _21  and  _22
REMARK   10  A    between atoms: _24  and  _26
REMARK   11  A    between atoms: _26  and  _27
REMARK   12  A    between atoms: _26  and  _29
REMARK   13  A    between atoms: _29  and  _30
REMARK   14  A    between atoms: _33  and  _35
REMARK   15  A    between atoms: _35  and  _36
REMARK   16  A    between atoms: _35  and  _38
REMARK   17  A    between atoms: _38  and  _39
REMARK   18  A    between atoms: _41  and  _43
REMARK   19  A    between atoms: _43  and  _44
REMARK   20  A    between atoms: _43  and  _46
REMARK   21  A    between atoms: _46  and  _47
REMARK   22  A    between atoms: _57  and  _59
REMARK   23  A    between atoms: _59  and  _60
REMARK   24  A    between atoms: _59  and  _62
REMARK   25  A    between atoms: _62  and  _63
REMARK   26  A    between atoms: _66  and  _68
REMARK   27  A    between atoms: _68  and  _69
REMARK   28  A    between atoms: _68  and  _71
REMARK   29  A    between atoms: _71  and  _72
REMARK   30  A    between atoms: _75  and  _77
REMARK   31  A    between atoms: _77  and  _78
REMARK   32  A    between atoms: _77  and  _80
REMARK   33  A    between atoms: _80  and  _81
REMARK   34  A    between atoms: _84  and  _86
REMARK   35  A    between atoms: _86  and  _87
REMARK   36  A    between atoms: _86  and  _89
REMARK   37  A    between atoms: _89  and  _90
REMARK   38  A    between atoms: _93  and  _95
REMARK   39  A    between atoms: _95  and  _96
REMARK   40  A    between atoms: _99  and  _101
REMARK   41  A    between atoms: _101  and  _102
REMARK   42  A    between atoms: _101  and  _104
REMARK   43  A    between atoms: _104  and  _105
REMARK   44  A    between atoms: _105  and  _106
REMARK   45  A    between atoms: _106  and  _107
REMARK   46  A    between atoms: _107  and  _108
REMARK   47  A    between atoms: _112  and  _114
REMARK   48  A    between atoms: _114  and  _115
REMARK   49  A    between atoms: _117  and  _119
REMARK   50  A    between atoms: _119  and  _120
REMARK   51  A    between atoms: _119  and  _122
REMARK   52  A    between atoms: _122  and  _123
REMARK   53  A    between atoms: _126  and  _128
REMARK   54  A    between atoms: _128  and  _129
REMARK   55  A    between atoms: _128  and  _131
REMARK   56  A    between atoms: _131  and  _132
REMARK   57  A    between atoms: _135  and  _137
REMARK   58  A    between atoms: _137  and  _138
REMARK   59  A    between atoms: _137  and  _140
REMARK   60  A    between atoms: _140  and  _141
REMARK   61  A    between atoms: _147  and  _149
REMARK   62  A    between atoms: _149  and  _150
REMARK   63  A    between atoms: _149  and  _152
REMARK   64  A    between atoms: _152  and  _153
REMARK   65  A    between atoms: _155  and  _157
REMARK   66  A    between atoms: _157  and  _158
REMARK   67  A    between atoms: _157  and  _160
REMARK   68  A    between atoms: _160  and  _161
REMARK   69  A    between atoms: _161  and  _162
REMARK   70  A    between atoms: _162  and  _163
REMARK   71  A    between atoms: _163  and  _164
REMARK   72  A    between atoms: _168  and  _170
REMARK   73  A    between atoms: _170  and  _171
REMARK   74  A    between atoms: _170  and  _173
REMARK   75  A    between atoms: _173  and  _174
REMARK   76  A    between atoms: _174  and  _175
REMARK   77  A    between atoms: _180  and  _182
REMARK   78  A    between atoms: _182  and  _183
REMARK   79  A    between atoms: _182  and  _185
REMARK   80  A    between atoms: _185  and  _186
REMARK   81  A    between atoms: _189  and  _191
REMARK   82  A    between atoms: _191  and  _192
REMARK   83  A    between atoms: _191  and  _194
REMARK   84  A    between atoms: _194  and  _195
REMARK   85  A    between atoms: _198  and  _200
REMARK   86  A    between atoms: _200  and  _201
REMARK   87  A    between atoms: _200  and  _203
REMARK   88  A    between atoms: _203  and  _204
REMARK   89  A    between atoms: _207  and  _209
REMARK   90  A    between atoms: _209  and  _210
REMARK   91  A    between atoms: _209  and  _212
REMARK   92  A    between atoms: _212  and  _213
REMARK   93  A    between atoms: _213  and  _214
REMARK   94  A    between atoms: _214  and  _215
REMARK   95  A    between atoms: _224  and  _226
REMARK   96  A    between atoms: _226  and  _227
REMARK   97  A    between atoms: _226  and  _229
REMARK   98  A    between atoms: _229  and  _230
REMARK   99  A    between atoms: _233  and  _235
REMARK  100  A    between atoms: _235  and  _236
REMARK  101  A    between atoms: _235  and  _238
REMARK  102  A    between atoms: _238  and  _239
REMARK  103  A    between atoms: _239  and  _240
REMARK  104  A    between atoms: _240  and  _241
REMARK  105  A    between atoms: _241  and  _242
REMARK  106  A    between atoms: _246  and  _248
REMARK  107  A    between atoms: _248  and  _249
REMARK  108  A    between atoms: _248  and  _251
REMARK  109  A    between atoms: _251  and  _252
REMARK  110  A    between atoms: _252  and  _253
REMARK  111  A    between atoms: _255  and  _257
REMARK  112  A    between atoms: _257  and  _258
REMARK  113  A    between atoms: _257  and  _260
REMARK  114  A    between atoms: _260  and  _261
REMARK  115  A    between atoms: _261  and  _262
REMARK  116  A    between atoms: _265  and  _267
REMARK  117  A    between atoms: _267  and  _268
REMARK  118  A    between atoms: _267  and  _270
REMARK  119  A    between atoms: _272  and  _274
REMARK  120  A    between atoms: _274  and  _275
REMARK  121  A    between atoms: _274  and  _277
REMARK  122  A    between atoms: _277  and  _278
REMARK  123  A    between atoms: _281  and  _283
REMARK  124  A    between atoms: _283  and  _284
REMARK  125  A    between atoms: _283  and  _286
REMARK  126  A    between atoms: _286  and  _287
REMARK  127  A    between atoms: _290  and  _292
REMARK  128  A    between atoms: _292  and  _293
REMARK  129  A    between atoms: _292  and  _295
REMARK  130  A    between atoms: _295  and  _296
REMARK  131  A    between atoms: _301  and  _302
REMARK  132  A    between atoms: _304  and  _306
REMARK  133  A    between atoms: _306  and  _307
REMARK  134  A    between atoms: _306  and  _309
REMARK  135  A    between atoms: _309  and  _310
REMARK  136  A    between atoms: _313  and  _315
REMARK  137  A    between atoms: _315  and  _316
REMARK  138  A    between atoms: _315  and  _318
REMARK  139  A    between atoms: _320  and  _322
REMARK  140  A    between atoms: _322  and  _323
REMARK  141  A    between atoms: _322  and  _325
REMARK  142  A    between atoms: _325  and  _326
REMARK  143  A    between atoms: _329  and  _331
REMARK  144  A    between atoms: _331  and  _332
REMARK  145  A    between atoms: _334  and  _336
REMARK  146  A    between atoms: _336  and  _337
REMARK  147  A    between atoms: _336  and  _339
REMARK  148  A    between atoms: _339  and  _340
REMARK  149  A    between atoms: _340  and  _341
REMARK  150  A    between atoms: _341  and  _342
REMARK  151  A    between atoms: _342  and  _343
REMARK  152  A    between atoms: _347  and  _349
REMARK  153  A    between atoms: _349  and  _350
REMARK  154  A    between atoms: _349  and  _352
REMARK  155  A    between atoms: _352  and  _353
REMARK  156  A    between atoms: _358  and  _360
REMARK  157  A    between atoms: _360  and  _361
REMARK  158  A    between atoms: _360  and  _363
REMARK  159  A    between atoms: _363  and  _364
REMARK  160  A    between atoms: _367  and  _369
REMARK  161  A    between atoms: _369  and  _370
REMARK  162  A    between atoms: _369  and  _372
REMARK  163  A    between atoms: _372  and  _373
REMARK  164  A    between atoms: _383  and  _385
REMARK  165  A    between atoms: _385  and  _386
REMARK  166  A    between atoms: _385  and  _388
REMARK  167  A    between atoms: _388  and  _389
REMARK  168  A    between atoms: _389  and  _390
REMARK  169  A    between atoms: _390  and  _391
REMARK  170  A    between atoms: _391  and  _392
REMARK  171  A    between atoms: _397  and  _398
REMARK  172  A    between atoms: _403  and  _405
REMARK  173  A    between atoms: _405  and  _406
REMARK  174  A    between atoms: _409  and  _411
REMARK  175  A    between atoms: _411  and  _412
REMARK  176  A    between atoms: _411  and  _414
REMARK  177  A    between atoms: _417  and  _419
REMARK  178  A    between atoms: _419  and  _420
REMARK  179  A    between atoms: _419  and  _422
REMARK  180  A    between atoms: _422  and  _423
REMARK  181  A    between atoms: _423  and  _424
REMARK  182  A    between atoms: _427  and  _429
REMARK  183  A    between atoms: _429  and  _430
REMARK  184  A    between atoms: _433  and  _435
REMARK  185  A    between atoms: _435  and  _436
REMARK  186  A    between atoms: _435  and  _438
REMARK  187  A    between atoms: _438  and  _439
REMARK  188  A    between atoms: _444  and  _445
REMARK  189  A    between atoms: _447  and  _449
REMARK  190  A    between atoms: _449  and  _450
REMARK  191  A    between atoms: _452  and  _454
REMARK  192  A    between atoms: _454  and  _455
REMARK  193  A    between atoms: _454  and  _457
REMARK  194  A    between atoms: _457  and  _458
REMARK  195  A    between atoms: _458  and  _459
REMARK  196  A    between atoms: _462  and  _464
REMARK  197  A    between atoms: _464  and  _465
REMARK  198  A    between atoms: _464  and  _467
REMARK  199  A    between atoms: _467  and  _468
REMARK  200  A    between atoms: _474  and  _476
REMARK  201  A    between atoms: _476  and  _477
REMARK  202  A    between atoms: _476  and  _479
REMARK  203  A    between atoms: _479  and  _480
REMARK  204  A    between atoms: _483  and  _485
REMARK  205  A    between atoms: _485  and  _486
REMARK  206  A    between atoms: _485  and  _488
REMARK  207  A    between atoms: _488  and  _489
REMARK  208  A    between atoms: _489  and  _490
REMARK  209  A    between atoms: _492  and  _494
REMARK  210  A    between atoms: _494  and  _495
REMARK  211  A    between atoms: _494  and  _497
REMARK  212  A    between atoms: _497  and  _498
REMARK  213  A    between atoms: _504  and  _506
REMARK  214  A    between atoms: _506  and  _507
REMARK  215  A    between atoms: _506  and  _509
REMARK  216  A    between atoms: _509  and  _510
REMARK  217  A    between atoms: _510  and  _511
REMARK  218  A    between atoms: _514  and  _516
REMARK  219  A    between atoms: _516  and  _517
REMARK  220  A    between atoms: _516  and  _519
REMARK  221  A    between atoms: _519  and  _520
REMARK  222  A    between atoms: _523  and  _525
REMARK  223  A    between atoms: _525  and  _526
REMARK  224  A    between atoms: _525  and  _528
REMARK  225  A    between atoms: _528  and  _529
REMARK  226  A    between atoms: _532  and  _534
REMARK  227  A    between atoms: _534  and  _535
REMARK  228  A    between atoms: _534  and  _537
REMARK  229  A    between atoms: _537  and  _538
REMARK  230  A    between atoms: _544  and  _546
REMARK  231  A    between atoms: _546  and  _547
REMARK  232  A    between atoms: _546  and  _549
REMARK  233  A    between atoms: _552  and  _554
REMARK  234  A    between atoms: _554  and  _555
REMARK  235  A    between atoms: _559  and  _560
REMARK  236  A    between atoms: _565  and  _567
REMARK  237  A    between atoms: _567  and  _568
REMARK  238  A    between atoms: _567  and  _570
REMARK  239  A    between atoms: _570  and  _571
REMARK  240  A    between atoms: _574  and  _576
REMARK  241  A    between atoms: _576  and  _577
REMARK  242  A    between atoms: _576  and  _579
REMARK  243  A    between atoms: _579  and  _580
REMARK  244  A    between atoms: _587  and  _588
REMARK  245  A    between atoms: _593  and  _595
REMARK  246  A    between atoms: _595  and  _596
REMARK  247  A    between atoms: _595  and  _598
REMARK  248  A    between atoms: _601  and  _603
REMARK  249  A    between atoms: _603  and  _604
REMARK  250  A    between atoms: _607  and  _609
REMARK  251  A    between atoms: _609  and  _610
REMARK  252  A    between atoms: _609  and  _612
REMARK  253  A    between atoms: _612  and  _613
REMARK  254  A    between atoms: _618  and  _619
REMARK  255  A    between atoms: _621  and  _623
REMARK  256  A    between atoms: _623  and  _624
REMARK  257  A    between atoms: _623  and  _626
REMARK  258  A    between atoms: _626  and  _627
REMARK  259  A    between atoms: _632  and  _634
REMARK  260  A    between atoms: _634  and  _635
REMARK  261  A    between atoms: _634  and  _637
REMARK  262  A    between atoms: _637  and  _638
REMARK  263  A    between atoms: _641  and  _643
REMARK  264  A    between atoms: _643  and  _644
REMARK  265  A    between atoms: _643  and  _646
REMARK  266  A    between atoms: _646  and  _647
REMARK  267  A    between atoms: _650  and  _652
REMARK  268  A    between atoms: _652  and  _653
REMARK  269  A    between atoms: _652  and  _655
REMARK  270  A    between atoms: _655  and  _656
REMARK  271  A    between atoms: _656  and  _657
REMARK  272  A    between atoms: _657  and  _658
REMARK  273  A    between atoms: _658  and  _659
REMARK  274  A    between atoms: _663  and  _665
REMARK  275  A    between atoms: _665  and  _666
REMARK  276  A    between atoms: _665  and  _668
REMARK  277  A    between atoms: _668  and  _669
REMARK  278  A    between atoms: _675  and  _677
REMARK  279  A    between atoms: _677  and  _678
REMARK  280  A    between atoms: _677  and  _680
REMARK  281  A    between atoms: _680  and  _681
REMARK  282  A    between atoms: _684  and  _686
REMARK  283  A    between atoms: _686  and  _687
REMARK  284  A    between atoms: _686  and  _689
REMARK  285  A    between atoms: _689  and  _690
REMARK  286  A    between atoms: _692  and  _694
REMARK  287  A    between atoms: _694  and  _695
REMARK  288  A    between atoms: _694  and  _697
REMARK  289  A    between atoms: _697  and  _698
REMARK  290  A    between atoms: _701  and  _703
REMARK  291  A    between atoms: _703  and  _704
REMARK  292  A    between atoms: _703  and  _706
REMARK  293  A    between atoms: _706  and  _707
REMARK  294  A    between atoms: _707  and  _708
REMARK  295  A    between atoms: _708  and  _709
REMARK  296  A    between atoms: _718  and  _720
REMARK  297  A    between atoms: _720  and  _721
REMARK  298  A    between atoms: _720  and  _723
REMARK  299  A    between atoms: _723  and  _724
REMARK  300  A    between atoms: _724  and  _725
REMARK  301  A    between atoms: _725  and  _726
REMARK  302  A    between atoms: _726  and  _727
REMARK  303  A    between atoms: _731  and  _733
REMARK  304  A    between atoms: _733  and  _734
REMARK  305  A    between atoms: _733  and  _736
REMARK  306  A    between atoms: _736  and  _737
REMARK  307  A    between atoms: _740  and  _742
REMARK  308  A    between atoms: _742  and  _743
REMARK  309  A    between atoms: _742  and  _745
REMARK  310  A    between atoms: _745  and  _746
REMARK  311  A    between atoms: _746  and  _747
REMARK  312  A    between atoms: _749  and  _751
REMARK  313  A    between atoms: _751  and  _752
REMARK  314  A    between atoms: _751  and  _754
REMARK  315  A    between atoms: _757  and  _759
REMARK  316  A    between atoms: _759  and  _760
REMARK  317  A    between atoms: _759  and  _762
REMARK  318  A    between atoms: _762  and  _763
REMARK                            x       y       z     vdW  Elec       q    Type
REMARK                         _______ _______ _______ _____ _____    ______ ____
ROOT
ATOM      1  O   HOH     1       9.397  -4.877  11.513  0.00  0.00    +0.000 OA
ENDROOT
TORSDOF 0
REMARK  Name = ../refined-set-2016/4omk/4omk_pocket.pdb
REMARK  318 active torsions:
REMARK  status: ('A' for Active; 'I' for Inactive)
REMARK    1  A    between atoms: _1  and  _3
REMARK    2  A    between atoms: _3  and  _4
REMARK    3  A    between atoms: _3  and  _6
REMARK    4  A    between atoms: _6  and  _7
REMARK    5  A    between atoms: _10  and  _12
REMARK    6  A    between atoms: _12  and  _13
REMARK    7  A    between atoms: _12  and  _15
REMARK    8  A    between atoms: _15  and  _16
REMARK    9  A    between atoms: _21  and  _22
REMARK   10  A    between atoms: _24  and  _26
REMARK   11  A    between atoms: _26  and  _27
REMARK   12  A    between atoms: _26  and  _29
REMARK   13  A    between atoms: _29  and  _30
REMARK   14  A    between atoms: _33  and  _35
REMARK   15  A    between atoms: _35  and  _36
REMARK   16  A    between atoms: _35  and  _38
REMARK   17  A    between atoms: _38  and  _39
REMARK   18  A    between atoms: _41  and  _43
REMARK   19  A    between atoms: _43  and  _44
REMARK   20  A    between atoms: _43  and  _46
REMARK   21  A    between atoms: _46  and  _47
REMARK   22  A    between atoms: _57  and  _59
REMARK   23  A    between atoms: _59  and  _60
REMARK   24  A    between atoms: _59  and  _62
REMARK   25  A    between atoms: _62  and  _63
REMARK   26  A    between atoms: _66  and  _68
REMARK   27  A    between atoms: _68  and  _69
REMARK   28  A    between atoms: _68  and  _71
REMARK   29  A    between atoms: _71  and  _72
REMARK   30  A    between atoms: _75  and  _77
REMARK   31  A    between atoms: _77  and  _78
REMARK   32  A    between atoms: _77  and  _80
REMARK   33  A    between atoms: _80  and  _81
REMARK   34  A    between atoms: _84  and  _86
REMARK   35  A    between atoms: _86  and  _87
REMARK   36  A    between atoms: _86  and  _89
REMARK   37  A    between atoms: _89  and  _90
REMARK   38  A    between atoms: _93  and  _95
REMARK   39  A    between atoms: _95  and  _96
REMARK   40  A    between atoms: _99  and  _101
REMARK   41  A    between atoms: _101  and  _102
REMARK   42  A    between atoms: _101  and  _104
REMARK   43  A    between atoms: _104  and  _105
REMARK   44  A    between atoms: _105  and  _106
REMARK   45  A    between atoms: _106  and  _107
REMARK   46  A    between atoms: _107  and  _108
REMARK   47  A    between atoms: _112  and  _114
REMARK   48  A    between atoms: _114  and  _115
REMARK   49  A    between atoms: _117  and  _119
REMARK   50  A    between atoms: _119  and  _120
REMARK   51  A    between atoms: _119  and  _122
REMARK   52  A    between atoms: _122  and  _123
REMARK   53  A    between atoms: _126  and  _128
REMARK   54  A    between atoms: _128  and  _129
REMARK   55  A    between atoms: _128  and  _131
REMARK   56  A    between atoms: _131  and  _132
REMARK   57  A    between atoms: _135  and  _137
REMARK   58  A    between atoms: _137  and  _138
REMARK   59  A    between atoms: _137  and  _140
REMARK   60  A    between atoms: _140  and  _141
REMARK   61  A    between atoms: _147  and  _149
REMARK   62  A    between atoms: _149  and  _150
REMARK   63  A    between atoms: _149  and  _152
REMARK   64  A    between atoms: _152  and  _153
REMARK   65  A    between atoms: _155  and  _157
REMARK   66  A    between atoms: _157  and  _158
REMARK   67  A    between atoms: _157  and  _160
REMARK   68  A    between atoms: _160  and  _161
REMARK   69  A    between atoms: _161  and  _162
REMARK   70  A    between atoms: _162  and  _163
REMARK   71  A    between atoms: _163  and  _164
REMARK   72  A    between atoms: _168  and  _170
REMARK   73  A    between atoms: _170  and  _171
REMARK   74  A    between atoms: _170  and  _173
REMARK   75  A    between atoms: _173  and  _174
REMARK   76  A    between atoms: _174  and  _175
REMARK   77  A    between atoms: _180  and  _182
REMARK   78  A    between atoms: _182  and  _183
REMARK   79  A    between atoms: _182  and  _185
REMARK   80  A    between atoms: _185  and  _186
REMARK   81  A    between atoms: _189  and  _191
REMARK   82  A    between atoms: _191  and  _192
REMARK   83  A    between atoms: _191  and  _194
REMARK   84  A    between atoms: _194  and  _195
REMARK   85  A    between atoms: _198  and  _200
REMARK   86  A    between atoms: _200  and  _201
REMARK   87  A    between atoms: _200  and  _203
REMARK   88  A    between atoms: _203  and  _204
REMARK   89  A    between atoms: _207  and  _209
REMARK   90  A    between atoms: _209  and  _210
REMARK   91  A    between atoms: _209  and  _212
REMARK   92  A    between atoms: _212  and  _213
REMARK   93  A    between atoms: _213  and  _214
REMARK   94  A    between atoms: _214  and  _215
REMARK   95  A    between atoms: _224  and  _226
REMARK   96  A    between atoms: _226  and  _227
REMARK   97  A    between atoms: _226  and  _229
REMARK   98  A    between atoms: _229  and  _230
REMARK   99  A    between atoms: _233  and  _235
REMARK  100  A    between atoms: _235  and  _236
REMARK  101  A    between atoms: _235  and  _238
REMARK  102  A    between atoms: _238  and  _239
REMARK  103  A    between atoms: _239  and  _240
REMARK  104  A    between atoms: _240  and  _241
REMARK  105  A    between atoms: _241  and  _242
REMARK  106  A    between atoms: _246  and  _248
REMARK  107  A    between atoms: _248  and  _249
REMARK  108  A    between atoms: _248  and  _251
REMARK  109  A    between atoms: _251  and  _252
REMARK  110  A    between atoms: _252  and  _253
REMARK  111  A    between atoms: _255  and  _257
REMARK  112  A    between atoms: _257  and  _258
REMARK  113  A    between atoms: _257  and  _260
REMARK  114  A    between atoms: _260  and  _261
REMARK  115  A    between atoms: _261  and  _262
REMARK  116  A    between atoms: _265  and  _267
REMARK  117  A    between atoms: _267  and  _268
REMARK  118  A    between atoms: _267  and  _270
REMARK  119  A    between atoms: _272  and  _274
REMARK  120  A    between atoms: _274  and  _275
REMARK  121  A    between atoms: _274  and  _277
REMARK  122  A    between atoms: _277  and  _278
REMARK  123  A    between atoms: _281  and  _283
REMARK  124  A    between atoms: _283  and  _284
REMARK  125  A    between atoms: _283  and  _286
REMARK  126  A    between atoms: _286  and  _287
REMARK  127  A    between atoms: _290  and  _292
REMARK  128  A    between atoms: _292  and  _293
REMARK  129  A    between atoms: _292  and  _295
REMARK  130  A    between atoms: _295  and  _296
REMARK  131  A    between atoms: _301  and  _302
REMARK  132  A    between atoms: _304  and  _306
REMARK  133  A    between atoms: _306  and  _307
REMARK  134  A    between atoms: _306  and  _309
REMARK  135  A    between atoms: _309  and  _310
REMARK  136  A    between atoms: _313  and  _315
REMARK  137  A    between atoms: _315  and  _316
REMARK  138  A    between atoms: _315  and  _318
REMARK  139  A    between atoms: _320  and  _322
REMARK  140  A    between atoms: _322  and  _323
REMARK  141  A    between atoms: _322  and  _325
REMARK  142  A    between atoms: _325  and  _326
REMARK  143  A    between atoms: _329  and  _331
REMARK  144  A    between atoms: _331  and  _332
REMARK  145  A    between atoms: _334  and  _336
REMARK  146  A    between atoms: _336  and  _337
REMARK  147  A    between atoms: _336  and  _339
REMARK  148  A    between atoms: _339  and  _340
REMARK  149  A    between atoms: _340  and  _341
REMARK  150  A    between atoms: _341  and  _342
REMARK  151  A    between atoms: _342  and  _343
REMARK  152  A    between atoms: _347  and  _349
REMARK  153  A    between atoms: _349  and  _350
REMARK  154  A    between atoms: _349  and  _352
REMARK  155  A    between atoms: _352  and  _353
REMARK  156  A    between atoms: _358  and  _360
REMARK  157  A    between atoms: _360  and  _361
REMARK  158  A    between atoms: _360  and  _363
REMARK  159  A    between atoms: _363  and  _364
REMARK  160  A    between atoms: _367  and  _369
REMARK  161  A    between atoms: _369  and  _370
REMARK  162  A    between atoms: _369  and  _372
REMARK  163  A    between atoms: _372  and  _373
REMARK  164  A    between atoms: _383  and  _385
REMARK  165  A    between atoms: _385  and  _386
REMARK  166  A    between atoms: _385  and  _388
REMARK  167  A    between atoms: _388  and  _389
REMARK  168  A    between atoms: _389  and  _390
REMARK  169  A    between atoms: _390  and  _391
REMARK  170  A    between atoms: _391  and  _392
REMARK  171  A    between atoms: _397  and  _398
REMARK  172  A    between atoms: _403  and  _405
REMARK  173  A    between atoms: _405  and  _406
REMARK  174  A    between atoms: _409  and  _411
REMARK  175  A    between atoms: _411  and  _412
REMARK  176  A    between atoms: _411  and  _414
REMARK  177  A    between atoms: _417  and  _419
REMARK  178  A    between atoms: _419  and  _420
REMARK  179  A    between atoms: _419  and  _422
REMARK  180  A    between atoms: _422  and  _423
REMARK  181  A    between atoms: _423  and  _424
REMARK  182  A    between atoms: _427  and  _429
REMARK  183  A    between atoms: _429  and  _430
REMARK  184  A    between atoms: _433  and  _435
REMARK  185  A    between atoms: _435  and  _436
REMARK  186  A    between atoms: _435  and  _438
REMARK  187  A    between atoms: _438  and  _439
REMARK  188  A    between atoms: _444  and  _445
REMARK  189  A    between atoms: _447  and  _449
REMARK  190  A    between atoms: _449  and  _450
REMARK  191  A    between atoms: _452  and  _454
REMARK  192  A    between atoms: _454  and  _455
REMARK  193  A    between atoms: _454  and  _457
REMARK  194  A    between atoms: _457  and  _458
REMARK  195  A    between atoms: _458  and  _459
REMARK  196  A    between atoms: _462  and  _464
REMARK  197  A    between atoms: _464  and  _465
REMARK  198  A    between atoms: _464  and  _467
REMARK  199  A    between atoms: _467  and  _468
REMARK  200  A    between atoms: _474  and  _476
REMARK  201  A    between atoms: _476  and  _477
REMARK  202  A    between atoms: _476  and  _479
REMARK  203  A    between atoms: _479  and  _480
REMARK  204  A    between atoms: _483  and  _485
REMARK  205  A    between atoms: _485  and  _486
REMARK  206  A    between atoms: _485  and  _488
REMARK  207  A    between atoms: _488  and  _489
REMARK  208  A    between atoms: _489  and  _490
REMARK  209  A    between atoms: _492  and  _494
REMARK  210  A    between atoms: _494  and  _495
REMARK  211  A    between atoms: _494  and  _497
REMARK  212  A    between atoms: _497  and  _498
REMARK  213  A    between atoms: _504  and  _506
REMARK  214  A    between atoms: _506  and  _507
REMARK  215  A    between atoms: _506  and  _509
REMARK  216  A    between atoms: _509  and  _510
REMARK  217  A    between atoms: _510  and  _511
REMARK  218  A    between atoms: _514  and  _516
REMARK  219  A    between atoms: _516  and  _517
REMARK  220  A    between atoms: _516  and  _519
REMARK  221  A    between atoms: _519  and  _520
REMARK  222  A    between atoms: _523  and  _525
REMARK  223  A    between atoms: _525  and  _526
REMARK  224  A    between atoms: _525  and  _528
REMARK  225  A    between atoms: _528  and  _529
REMARK  226  A    between atoms: _532  and  _534
REMARK  227  A    between atoms: _534  and  _535
REMARK  228  A    between atoms: _534  and  _537
REMARK  229  A    between atoms: _537  and  _538
REMARK  230  A    between atoms: _544  and  _546
REMARK  231  A    between atoms: _546  and  _547
REMARK  232  A    between atoms: _546  and  _549
REMARK  233  A    between atoms: _552  and  _554
REMARK  234  A    between atoms: _554  and  _555
REMARK  235  A    between atoms: _559  and  _560
REMARK  236  A    between atoms: _565  and  _567
REMARK  237  A    between atoms: _567  and  _568
REMARK  238  A    between atoms: _567  and  _570
REMARK  239  A    between atoms: _570  and  _571
REMARK  240  A    between atoms: _574  and  _576
REMARK  241  A    between atoms: _576  and  _577
REMARK  242  A    between atoms: _576  and  _579
REMARK  243  A    between atoms: _579  and  _580
REMARK  244  A    between atoms: _587  and  _588
REMARK  245  A    between atoms: _593  and  _595
REMARK  246  A    between atoms: _595  and  _596
REMARK  247  A    between atoms: _595  and  _598
REMARK  248  A    between atoms: _601  and  _603
REMARK  249  A    between atoms: _603  and  _604
REMARK  250  A    between atoms: _607  and  _609
REMARK  251  A    between atoms: _609  and  _610
REMARK  252  A    between atoms: _609  and  _612
REMARK  253  A    between atoms: _612  and  _613
REMARK  254  A    between atoms: _618  and  _619
REMARK  255  A    between atoms: _621  and  _623
REMARK  256  A    between atoms: _623  and  _624
REMARK  257  A    between atoms: _623  and  _626
REMARK  258  A    between atoms: _626  and  _627
REMARK  259  A    between atoms: _632  and  _634
REMARK  260  A    between atoms: _634  and  _635
REMARK  261  A    between atoms: _634  and  _637
REMARK  262  A    between atoms: _637  and  _638
REMARK  263  A    between atoms: _641  and  _643
REMARK  264  A    between atoms: _643  and  _644
REMARK  265  A    between atoms: _643  and  _646
REMARK  266  A    between atoms: _646  and  _647
REMARK  267  A    between atoms: _650  and  _652
REMARK  268  A    between atoms: _652  and  _653
REMARK  269  A    between atoms: _652  and  _655
REMARK  270  A    between atoms: _655  and  _656
REMARK  271  A    between atoms: _656  and  _657
REMARK  272  A    between atoms: _657  and  _658
REMARK  273  A    between atoms: _658  and  _659
REMARK  274  A    between atoms: _663  and  _665
REMARK  275  A    between atoms: _665  and  _666
REMARK  276  A    between atoms: _665  and  _668
REMARK  277  A    between atoms: _668  and  _669
REMARK  278  A    between atoms: _675  and  _677
REMARK  279  A    between atoms: _677  and  _678
REMARK  280  A    between atoms: _677  and  _680
REMARK  281  A    between atoms: _680  and  _681
REMARK  282  A    between atoms: _684  and  _686
REMARK  283  A    between atoms: _686  and  _687
REMARK  284  A    between atoms: _686  and  _689
REMARK  285  A    between atoms: _689  and  _690
REMARK  286  A    between atoms: _692  and  _694
REMARK  287  A    between atoms: _694  and  _695
REMARK  288  A    between atoms: _694  and  _697
REMARK  289  A    between atoms: _697  and  _698
REMARK  290  A    between atoms: _701  and  _703
REMARK  291  A    between atoms: _703  and  _704
REMARK  292  A    between atoms: _703  and  _706
REMARK  293  A    between atoms: _706  and  _707
REMARK  294  A    between atoms: _707  and  _708
REMARK  295  A    between atoms: _708  and  _709
REMARK  296  A    between atoms: _718  and  _720
REMARK  297  A    between atoms: _720  and  _721
REMARK  298  A    between atoms: _720  and  _723
REMARK  299  A    between atoms: _723  and  _724
REMARK  300  A    between atoms: _724  and  _725
REMARK  301  A    between atoms: _725  and  _726
REMARK  302  A    between atoms: _726  and  _727
REMARK  303  A    between atoms: _731  and  _733
REMARK  304  A    between atoms: _733  and  _734
REMARK  305  A    between atoms: _733  and  _736
REMARK  306  A    between atoms: _736  and  _737
REMARK  307  A    between atoms: _740  and  _742
REMARK  308  A    between atoms: _742  and  _743
REMARK  309  A    between atoms: _742  and  _745
REMARK  310  A    between atoms: _745  and  _746
REMARK  311  A    between atoms: _746  and  _747
REMARK  312  A    between atoms: _749  and  _751
REMARK  313  A    between atoms: _751  and  _752
REMARK  314  A    between atoms: _751  and  _754
REMARK  315  A    between atoms: _757  and  _759
REMARK  316  A    between atoms: _759  and  _760
REMARK  317  A    between atoms: _759  and  _762
REMARK  318  A    between atoms: _762  and  _763
REMARK                            x       y       z     vdW  Elec       q    Type
REMARK                         _______ _______ _______ _____ _____    ______ ____
ROOT
ATOM      1  O   HOH     1      17.509   5.673  -0.489  0.00  0.00    +0.000 OA
ENDROOT
TORSDOF 0
REMARK  Name = ../refined-set-2016/4omk/4omk_pocket.pdb
REMARK  318 active torsions:
REMARK  status: ('A' for Active; 'I' for Inactive)
REMARK    1  A    between atoms: _1  and  _3
REMARK    2  A    between atoms: _3  and  _4
REMARK    3  A    between atoms: _3  and  _6
REMARK    4  A    between atoms: _6  and  _7
REMARK    5  A    between atoms: _10  and  _12
REMARK    6  A    between atoms: _12  and  _13
REMARK    7  A    between atoms: _12  and  _15
REMARK    8  A    between atoms: _15  and  _16
REMARK    9  A    between atoms: _21  and  _22
REMARK   10  A    between atoms: _24  and  _26
REMARK   11  A    between atoms: _26  and  _27
REMARK   12  A    between atoms: _26  and  _29
REMARK   13  A    between atoms: _29  and  _30
REMARK   14  A    between atoms: _33  and  _35
REMARK   15  A    between atoms: _35  and  _36
REMARK   16  A    between atoms: _35  and  _38
REMARK   17  A    between atoms: _38  and  _39
REMARK   18  A    between atoms: _41  and  _43
REMARK   19  A    between atoms: _43  and  _44
REMARK   20  A    between atoms: _43  and  _46
REMARK   21  A    between atoms: _46  and  _47
REMARK   22  A    between atoms: _57  and  _59
REMARK   23  A    between atoms: _59  and  _60
REMARK   24  A    between atoms: _59  and  _62
REMARK   25  A    between atoms: _62  and  _63
REMARK   26  A    between atoms: _66  and  _68
REMARK   27  A    between atoms: _68  and  _69
REMARK   28  A    between atoms: _68  and  _71
REMARK   29  A    between atoms: _71  and  _72
REMARK   30  A    between atoms: _75  and  _77
REMARK   31  A    between atoms: _77  and  _78
REMARK   32  A    between atoms: _77  and  _80
REMARK   33  A    between atoms: _80  and  _81
REMARK   34  A    between atoms: _84  and  _86
REMARK   35  A    between atoms: _86  and  _87
REMARK   36  A    between atoms: _86  and  _89
REMARK   37  A    between atoms: _89  and  _90
REMARK   38  A    between atoms: _93  and  _95
REMARK   39  A    between atoms: _95  and  _96
REMARK   40  A    between atoms: _99  and  _101
REMARK   41  A    between atoms: _101  and  _102
REMARK   42  A    between atoms: _101  and  _104
REMARK   43  A    between atoms: _104  and  _105
REMARK   44  A    between atoms: _105  and  _106
REMARK   45  A    between atoms: _106  and  _107
REMARK   46  A    between atoms: _107  and  _108
REMARK   47  A    between atoms: _112  and  _114
REMARK   48  A    between atoms: _114  and  _115
REMARK   49  A    between atoms: _117  and  _119
REMARK   50  A    between atoms: _119  and  _120
REMARK   51  A    between atoms: _119  and  _122
REMARK   52  A    between atoms: _122  and  _123
REMARK   53  A    between atoms: _126  and  _128
REMARK   54  A    between atoms: _128  and  _129
REMARK   55  A    between atoms: _128  and  _131
REMARK   56  A    between atoms: _131  and  _132
REMARK   57  A    between atoms: _135  and  _137
REMARK   58  A    between atoms: _137  and  _138
REMARK   59  A    between atoms: _137  and  _140
REMARK   60  A    between atoms: _140  and  _141
REMARK   61  A    between atoms: _147  and  _149
REMARK   62  A    between atoms: _149  and  _150
REMARK   63  A    between atoms: _149  and  _152
REMARK   64  A    between atoms: _152  and  _153
REMARK   65  A    between atoms: _155  and  _157
REMARK   66  A    between atoms: _157  and  _158
REMARK   67  A    between atoms: _157  and  _160
REMARK   68  A    between atoms: _160  and  _161
REMARK   69  A    between atoms: _161  and  _162
REMARK   70  A    between atoms: _162  and  _163
REMARK   71  A    between atoms: _163  and  _164
REMARK   72  A    between atoms: _168  and  _170
REMARK   73  A    between atoms: _170  and  _171
REMARK   74  A    between atoms: _170  and  _173
REMARK   75  A    between atoms: _173  and  _174
REMARK   76  A    between atoms: _174  and  _175
REMARK   77  A    between atoms: _180  and  _182
REMARK   78  A    between atoms: _182  and  _183
REMARK   79  A    between atoms: _182  and  _185
REMARK   80  A    between atoms: _185  and  _186
REMARK   81  A    between atoms: _189  and  _191
REMARK   82  A    between atoms: _191  and  _192
REMARK   83  A    between atoms: _191  and  _194
REMARK   84  A    between atoms: _194  and  _195
REMARK   85  A    between atoms: _198  and  _200
REMARK   86  A    between atoms: _200  and  _201
REMARK   87  A    between atoms: _200  and  _203
REMARK   88  A    between atoms: _203  and  _204
REMARK   89  A    between atoms: _207  and  _209
REMARK   90  A    between atoms: _209  and  _210
REMARK   91  A    between atoms: _209  and  _212
REMARK   92  A    between atoms: _212  and  _213
REMARK   93  A    between atoms: _213  and  _214
REMARK   94  A    between atoms: _214  and  _215
REMARK   95  A    between atoms: _224  and  _226
REMARK   96  A    between atoms: _226  and  _227
REMARK   97  A    between atoms: _226  and  _229
REMARK   98  A    between atoms: _229  and  _230
REMARK   99  A    between atoms: _233  and  _235
REMARK  100  A    between atoms: _235  and  _236
REMARK  101  A    between atoms: _235  and  _238
REMARK  102  A    between atoms: _238  and  _239
REMARK  103  A    between atoms: _239  and  _240
REMARK  104  A    between atoms: _240  and  _241
REMARK  105  A    between atoms: _241  and  _242
REMARK  106  A    between atoms: _246  and  _248
REMARK  107  A    between atoms: _248  and  _249
REMARK  108  A    between atoms: _248  and  _251
REMARK  109  A    between atoms: _251  and  _252
REMARK  110  A    between atoms: _252  and  _253
REMARK  111  A    between atoms: _255  and  _257
REMARK  112  A    between atoms: _257  and  _258
REMARK  113  A    between atoms: _257  and  _260
REMARK  114  A    between atoms: _260  and  _261
REMARK  115  A    between atoms: _261  and  _262
REMARK  116  A    between atoms: _265  and  _267
REMARK  117  A    between atoms: _267  and  _268
REMARK  118  A    between atoms: _267  and  _270
REMARK  119  A    between atoms: _272  and  _274
REMARK  120  A    between atoms: _274  and  _275
REMARK  121  A    between atoms: _274  and  _277
REMARK  122  A    between atoms: _277  and  _278
REMARK  123  A    between atoms: _281  and  _283
REMARK  124  A    between atoms: _283  and  _284
REMARK  125  A    between atoms: _283  and  _286
REMARK  126  A    between atoms: _286  and  _287
REMARK  127  A    between atoms: _290  and  _292
REMARK  128  A    between atoms: _292  and  _293
REMARK  129  A    between atoms: _292  and  _295
REMARK  130  A    between atoms: _295  and  _296
REMARK  131  A    between atoms: _301  and  _302
REMARK  132  A    between atoms: _304  and  _306
REMARK  133  A    between atoms: _306  and  _307
REMARK  134  A    between atoms: _306  and  _309
REMARK  135  A    between atoms: _309  and  _310
REMARK  136  A    between atoms: _313  and  _315
REMARK  137  A    between atoms: _315  and  _316
REMARK  138  A    between atoms: _315  and  _318
REMARK  139  A    between atoms: _320  and  _322
REMARK  140  A    between atoms: _322  and  _323
REMARK  141  A    between atoms: _322  and  _325
REMARK  142  A    between atoms: _325  and  _326
REMARK  143  A    between atoms: _329  and  _331
REMARK  144  A    between atoms: _331  and  _332
REMARK  145  A    between atoms: _334  and  _336
REMARK  146  A    between atoms: _336  and  _337
REMARK  147  A    between atoms: _336  and  _339
REMARK  148  A    between atoms: _339  and  _340
REMARK  149  A    between atoms: _340  and  _341
REMARK  150  A    between atoms: _341  and  _342
REMARK  151  A    between atoms: _342  and  _343
REMARK  152  A    between atoms: _347  and  _349
REMARK  153  A    between atoms: _349  and  _350
REMARK  154  A    between atoms: _349  and  _352
REMARK  155  A    between atoms: _352  and  _353
REMARK  156  A    between atoms: _358  and  _360
REMARK  157  A    between atoms: _360  and  _361
REMARK  158  A    between atoms: _360  and  _363
REMARK  159  A    between atoms: _363  and  _364
REMARK  160  A    between atoms: _367  and  _369
REMARK  161  A    between atoms: _369  and  _370
REMARK  162  A    between atoms: _369  and  _372
REMARK  163  A    between atoms: _372  and  _373
REMARK  164  A    between atoms: _383  and  _385
REMARK  165  A    between atoms: _385  and  _386
REMARK  166  A    between atoms: _385  and  _388
REMARK  167  A    between atoms: _388  and  _389
REMARK  168  A    between atoms: _389  and  _390
REMARK  169  A    between atoms: _390  and  _391
REMARK  170  A    between atoms: _391  and  _392
REMARK  171  A    between atoms: _397  and  _398
REMARK  172  A    between atoms: _403  and  _405
REMARK  173  A    between atoms: _405  and  _406
REMARK  174  A    between atoms: _409  and  _411
REMARK  175  A    between atoms: _411  and  _412
REMARK  176  A    between atoms: _411  and  _414
REMARK  177  A    between atoms: _417  and  _419
REMARK  178  A    between atoms: _419  and  _420
REMARK  179  A    between atoms: _419  and  _422
REMARK  180  A    between atoms: _422  and  _423
REMARK  181  A    between atoms: _423  and  _424
REMARK  182  A    between atoms: _427  and  _429
REMARK  183  A    between atoms: _429  and  _430
REMARK  184  A    between atoms: _433  and  _435
REMARK  185  A    between atoms: _435  and  _436
REMARK  186  A    between atoms: _435  and  _438
REMARK  187  A    between atoms: _438  and  _439
REMARK  188  A    between atoms: _444  and  _445
REMARK  189  A    between atoms: _447  and  _449
REMARK  190  A    between atoms: _449  and  _450
REMARK  191  A    between atoms: _452  and  _454
REMARK  192  A    between atoms: _454  and  _455
REMARK  193  A    between atoms: _454  and  _457
REMARK  194  A    between atoms: _457  and  _458
REMARK  195  A    between atoms: _458  and  _459
REMARK  196  A    between atoms: _462  and  _464
REMARK  197  A    between atoms: _464  and  _465
REMARK  198  A    between atoms: _464  and  _467
REMARK  199  A    between atoms: _467  and  _468
REMARK  200  A    between atoms: _474  and  _476
REMARK  201  A    between atoms: _476  and  _477
REMARK  202  A    between atoms: _476  and  _479
REMARK  203  A    between atoms: _479  and  _480
REMARK  204  A    between atoms: _483  and  _485
REMARK  205  A    between atoms: _485  and  _486
REMARK  206  A    between atoms: _485  and  _488
REMARK  207  A    between atoms: _488  and  _489
REMARK  208  A    between atoms: _489  and  _490
REMARK  209  A    between atoms: _492  and  _494
REMARK  210  A    between atoms: _494  and  _495
REMARK  211  A    between atoms: _494  and  _497
REMARK  212  A    between atoms: _497  and  _498
REMARK  213  A    between atoms: _504  and  _506
REMARK  214  A    between atoms: _506  and  _507
REMARK  215  A    between atoms: _506  and  _509
REMARK  216  A    between atoms: _509  and  _510
REMARK  217  A    between atoms: _510  and  _511
REMARK  218  A    between atoms: _514  and  _516
REMARK  219  A    between atoms: _516  and  _517
REMARK  220  A    between atoms: _516  and  _519
REMARK  221  A    between atoms: _519  and  _520
REMARK  222  A    between atoms: _523  and  _525
REMARK  223  A    between atoms: _525  and  _526
REMARK  224  A    between atoms: _525  and  _528
REMARK  225  A    between atoms: _528  and  _529
REMARK  226  A    between atoms: _532  and  _534
REMARK  227  A    between atoms: _534  and  _535
REMARK  228  A    between atoms: _534  and  _537
REMARK  229  A    between atoms: _537  and  _538
REMARK  230  A    between atoms: _544  and  _546
REMARK  231  A    between atoms: _546  and  _547
REMARK  232  A    between atoms: _546  and  _549
REMARK  233  A    between atoms: _552  and  _554
REMARK  234  A    between atoms: _554  and  _555
REMARK  235  A    between atoms: _559  and  _560
REMARK  236  A    between atoms: _565  and  _567
REMARK  237  A    between atoms: _567  and  _568
REMARK  238  A    between atoms: _567  and  _570
REMARK  239  A    between atoms: _570  and  _571
REMARK  240  A    between atoms: _574  and  _576
REMARK  241  A    between atoms: _576  and  _577
REMARK  242  A    between atoms: _576  and  _579
REMARK  243  A    between atoms: _579  and  _580
REMARK  244  A    between atoms: _587  and  _588
REMARK  245  A    between atoms: _593  and  _595
REMARK  246  A    between atoms: _595  and  _596
REMARK  247  A    between atoms: _595  and  _598
REMARK  248  A    between atoms: _601  and  _603
REMARK  249  A    between atoms: _603  and  _604
REMARK  250  A    between atoms: _607  and  _609
REMARK  251  A    between atoms: _609  and  _610
REMARK  252  A    between atoms: _609  and  _612
REMARK  253  A    between atoms: _612  and  _613
REMARK  254  A    between atoms: _618  and  _619
REMARK  255  A    between atoms: _621  and  _623
REMARK  256  A    between atoms: _623  and  _624
REMARK  257  A    between atoms: _623  and  _626
REMARK  258  A    between atoms: _626  and  _627
REMARK  259  A    between atoms: _632  and  _634
REMARK  260  A    between atoms: _634  and  _635
REMARK  261  A    between atoms: _634  and  _637
REMARK  262  A    between atoms: _637  and  _638
REMARK  263  A    between atoms: _641  and  _643
REMARK  264  A    between atoms: _643  and  _644
REMARK  265  A    between atoms: _643  and  _646
REMARK  266  A    between atoms: _646  and  _647
REMARK  267  A    between atoms: _650  and  _652
REMARK  268  A    between atoms: _652  and  _653
REMARK  269  A    between atoms: _652  and  _655
REMARK  270  A    between atoms: _655  and  _656
REMARK  271  A    between atoms: _656  and  _657
REMARK  272  A    between atoms: _657  and  _658
REMARK  273  A    between atoms: _658  and  _659
REMARK  274  A    between atoms: _663  and  _665
REMARK  275  A    between atoms: _665  and  _666
REMARK  276  A    between atoms: _665  and  _668
REMARK  277  A    between atoms: _668  and  _669
REMARK  278  A    between atoms: _675  and  _677
REMARK  279  A    between atoms: _677  and  _678
REMARK  280  A    between atoms: _677  and  _680
REMARK  281  A    between atoms: _680  and  _681
REMARK  282  A    between atoms: _684  and  _686
REMARK  283  A    between atoms: _686  and  _687
REMARK  284  A    between atoms: _686  and  _689
REMARK  285  A    between atoms: _689  and  _690
REMARK  286  A    between atoms: _692  and  _694
REMARK  287  A    between atoms: _694  and  _695
REMARK  288  A    between atoms: _694  and  _697
REMARK  289  A    between atoms: _697  and  _698
REMARK  290  A    between atoms: _701  and  _703
REMARK  291  A    between atoms: _703  and  _704
REMARK  292  A    between atoms: _703  and  _706
REMARK  293  A    between atoms: _706  and  _707
REMARK  294  A    between atoms: _707  and  _708
REMARK  295  A    between atoms: _708  and  _709
REMARK  296  A    between atoms: _718  and  _720
REMARK  297  A    between atoms: _720  and  _721
REMARK  298  A    between atoms: _720  and  _723
REMARK  299  A    between atoms: _723  and  _724
REMARK  300  A    between atoms: _724  and  _725
REMARK  301  A    between atoms: _725  and  _726
REMARK  302  A    between atoms: _726  and  _727
REMARK  303  A    between atoms: _731  and  _733
REMARK  304  A    between atoms: _733  and  _734
REMARK  305  A    between atoms: _733  and  _736
REMARK  306  A    between atoms: _736  and  _737
REMARK  307  A    between atoms: _740  and  _742
REMARK  308  A    between atoms: _742  and  _743
REMARK  309  A    between atoms: _742  and  _745
REMARK  310  A    between atoms: _745  and  _746
REMARK  311  A    between atoms: _746  and  _747
REMARK  312  A    between atoms: _749  and  _751
REMARK  313  A    between atoms: _751  and  _752
REMARK  314  A    between atoms: _751  and  _754
REMARK  315  A    between atoms: _757  and  _759
REMARK  316  A    between atoms: _759  and  _760
REMARK  317  A    between atoms: _759  and  _762
REMARK  318  A    between atoms: _762  and  _763
REMARK                            x       y       z     vdW  Elec       q    Type
REMARK                         _______ _______ _______ _____ _____    ______ ____
ROOT
ATOM      1  O   HOH     1      22.581  16.471   3.453  0.00  0.00    +0.000 OA
ENDROOT
TORSDOF 0
REMARK  Name = ../refined-set-2016/4omk/4omk_pocket.pdb
REMARK  318 active torsions:
REMARK  status: ('A' for Active; 'I' for Inactive)
REMARK    1  A    between atoms: _1  and  _3
REMARK    2  A    between atoms: _3  and  _4
REMARK    3  A    between atoms: _3  and  _6
REMARK    4  A    between atoms: _6  and  _7
REMARK    5  A    between atoms: _10  and  _12
REMARK    6  A    between atoms: _12  and  _13
REMARK    7  A    between atoms: _12  and  _15
REMARK    8  A    between atoms: _15  and  _16
REMARK    9  A    between atoms: _21  and  _22
REMARK   10  A    between atoms: _24  and  _26
REMARK   11  A    between atoms: _26  and  _27
REMARK   12  A    between atoms: _26  and  _29
REMARK   13  A    between atoms: _29  and  _30
REMARK   14  A    between atoms: _33  and  _35
REMARK   15  A    between atoms: _35  and  _36
REMARK   16  A    between atoms: _35  and  _38
REMARK   17  A    between atoms: _38  and  _39
REMARK   18  A    between atoms: _41  and  _43
REMARK   19  A    between atoms: _43  and  _44
REMARK   20  A    between atoms: _43  and  _46
REMARK   21  A    between atoms: _46  and  _47
REMARK   22  A    between atoms: _57  and  _59
REMARK   23  A    between atoms: _59  and  _60
REMARK   24  A    between atoms: _59  and  _62
REMARK   25  A    between atoms: _62  and  _63
REMARK   26  A    between atoms: _66  and  _68
REMARK   27  A    between atoms: _68  and  _69
REMARK   28  A    between atoms: _68  and  _71
REMARK   29  A    between atoms: _71  and  _72
REMARK   30  A    between atoms: _75  and  _77
REMARK   31  A    between atoms: _77  and  _78
REMARK   32  A    between atoms: _77  and  _80
REMARK   33  A    between atoms: _80  and  _81
REMARK   34  A    between atoms: _84  and  _86
REMARK   35  A    between atoms: _86  and  _87
REMARK   36  A    between atoms: _86  and  _89
REMARK   37  A    between atoms: _89  and  _90
REMARK   38  A    between atoms: _93  and  _95
REMARK   39  A    between atoms: _95  and  _96
REMARK   40  A    between atoms: _99  and  _101
REMARK   41  A    between atoms: _101  and  _102
REMARK   42  A    between atoms: _101  and  _104
REMARK   43  A    between atoms: _104  and  _105
REMARK   44  A    between atoms: _105  and  _106
REMARK   45  A    between atoms: _106  and  _107
REMARK   46  A    between atoms: _107  and  _108
REMARK   47  A    between atoms: _112  and  _114
REMARK   48  A    between atoms: _114  and  _115
REMARK   49  A    between atoms: _117  and  _119
REMARK   50  A    between atoms: _119  and  _120
REMARK   51  A    between atoms: _119  and  _122
REMARK   52  A    between atoms: _122  and  _123
REMARK   53  A    between atoms: _126  and  _128
REMARK   54  A    between atoms: _128  and  _129
REMARK   55  A    between atoms: _128  and  _131
REMARK   56  A    between atoms: _131  and  _132
REMARK   57  A    between atoms: _135  and  _137
REMARK   58  A    between atoms: _137  and  _138
REMARK   59  A    between atoms: _137  and  _140
REMARK   60  A    between atoms: _140  and  _141
REMARK   61  A    between atoms: _147  and  _149
REMARK   62  A    between atoms: _149  and  _150
REMARK   63  A    between atoms: _149  and  _152
REMARK   64  A    between atoms: _152  and  _153
REMARK   65  A    between atoms: _155  and  _157
REMARK   66  A    between atoms: _157  and  _158
REMARK   67  A    between atoms: _157  and  _160
REMARK   68  A    between atoms: _160  and  _161
REMARK   69  A    between atoms: _161  and  _162
REMARK   70  A    between atoms: _162  and  _163
REMARK   71  A    between atoms: _163  and  _164
REMARK   72  A    between atoms: _168  and  _170
REMARK   73  A    between atoms: _170  and  _171
REMARK   74  A    between atoms: _170  and  _173
REMARK   75  A    between atoms: _173  and  _174
REMARK   76  A    between atoms: _174  and  _175
REMARK   77  A    between atoms: _180  and  _182
REMARK   78  A    between atoms: _182  and  _183
REMARK   79  A    between atoms: _182  and  _185
REMARK   80  A    between atoms: _185  and  _186
REMARK   81  A    between atoms: _189  and  _191
REMARK   82  A    between atoms: _191  and  _192
REMARK   83  A    between atoms: _191  and  _194
REMARK   84  A    between atoms: _194  and  _195
REMARK   85  A    between atoms: _198  and  _200
REMARK   86  A    between atoms: _200  and  _201
REMARK   87  A    between atoms: _200  and  _203
REMARK   88  A    between atoms: _203  and  _204
REMARK   89  A    between atoms: _207  and  _209
REMARK   90  A    between atoms: _209  and  _210
REMARK   91  A    between atoms: _209  and  _212
REMARK   92  A    between atoms: _212  and  _213
REMARK   93  A    between atoms: _213  and  _214
REMARK   94  A    between atoms: _214  and  _215
REMARK   95  A    between atoms: _224  and  _226
REMARK   96  A    between atoms: _226  and  _227
REMARK   97  A    between atoms: _226  and  _229
REMARK   98  A    between atoms: _229  and  _230
REMARK   99  A    between atoms: _233  and  _235
REMARK  100  A    between atoms: _235  and  _236
REMARK  101  A    between atoms: _235  and  _238
REMARK  102  A    between atoms: _238  and  _239
REMARK  103  A    between atoms: _239  and  _240
REMARK  104  A    between atoms: _240  and  _241
REMARK  105  A    between atoms: _241  and  _242
REMARK  106  A    between atoms: _246  and  _248
REMARK  107  A    between atoms: _248  and  _249
REMARK  108  A    between atoms: _248  and  _251
REMARK  109  A    between atoms: _251  and  _252
REMARK  110  A    between atoms: _252  and  _253
REMARK  111  A    between atoms: _255  and  _257
REMARK  112  A    between atoms: _257  and  _258
REMARK  113  A    between atoms: _257  and  _260
REMARK  114  A    between atoms: _260  and  _261
REMARK  115  A    between atoms: _261  and  _262
REMARK  116  A    between atoms: _265  and  _267
REMARK  117  A    between atoms: _267  and  _268
REMARK  118  A    between atoms: _267  and  _270
REMARK  119  A    between atoms: _272  and  _274
REMARK  120  A    between atoms: _274  and  _275
REMARK  121  A    between atoms: _274  and  _277
REMARK  122  A    between atoms: _277  and  _278
REMARK  123  A    between atoms: _281  and  _283
REMARK  124  A    between atoms: _283  and  _284
REMARK  125  A    between atoms: _283  and  _286
REMARK  126  A    between atoms: _286  and  _287
REMARK  127  A    between atoms: _290  and  _292
REMARK  128  A    between atoms: _292  and  _293
REMARK  129  A    between atoms: _292  and  _295
REMARK  130  A    between atoms: _295  and  _296
REMARK  131  A    between atoms: _301  and  _302
REMARK  132  A    between atoms: _304  and  _306
REMARK  133  A    between atoms: _306  and  _307
REMARK  134  A    between atoms: _306  and  _309
REMARK  135  A    between atoms: _309  and  _310
REMARK  136  A    between atoms: _313  and  _315
REMARK  137  A    between atoms: _315  and  _316
REMARK  138  A    between atoms: _315  and  _318
REMARK  139  A    between atoms: _320  and  _322
REMARK  140  A    between atoms: _322  and  _323
REMARK  141  A    between atoms: _322  and  _325
REMARK  142  A    between atoms: _325  and  _326
REMARK  143  A    between atoms: _329  and  _331
REMARK  144  A    between atoms: _331  and  _332
REMARK  145  A    between atoms: _334  and  _336
REMARK  146  A    between atoms: _336  and  _337
REMARK  147  A    between atoms: _336  and  _339
REMARK  148  A    between atoms: _339  and  _340
REMARK  149  A    between atoms: _340  and  _341
REMARK  150  A    between atoms: _341  and  _342
REMARK  151  A    between atoms: _342  and  _343
REMARK  152  A    between atoms: _347  and  _349
REMARK  153  A    between atoms: _349  and  _350
REMARK  154  A    between atoms: _349  and  _352
REMARK  155  A    between atoms: _352  and  _353
REMARK  156  A    between atoms: _358  and  _360
REMARK  157  A    between atoms: _360  and  _361
REMARK  158  A    between atoms: _360  and  _363
REMARK  159  A    between atoms: _363  and  _364
REMARK  160  A    between atoms: _367  and  _369
REMARK  161  A    between atoms: _369  and  _370
REMARK  162  A    between atoms: _369  and  _372
REMARK  163  A    between atoms: _372  and  _373
REMARK  164  A    between atoms: _383  and  _385
REMARK  165  A    between atoms: _385  and  _386
REMARK  166  A    between atoms: _385  and  _388
REMARK  167  A    between atoms: _388  and  _389
REMARK  168  A    between atoms: _389  and  _390
REMARK  169  A    between atoms: _390  and  _391
REMARK  170  A    between atoms: _391  and  _392
REMARK  171  A    between atoms: _397  and  _398
REMARK  172  A    between atoms: _403  and  _405
REMARK  173  A    between atoms: _405  and  _406
REMARK  174  A    between atoms: _409  and  _411
REMARK  175  A    between atoms: _411  and  _412
REMARK  176  A    between atoms: _411  and  _414
REMARK  177  A    between atoms: _417  and  _419
REMARK  178  A    between atoms: _419  and  _420
REMARK  179  A    between atoms: _419  and  _422
REMARK  180  A    between atoms: _422  and  _423
REMARK  181  A    between atoms: _423  and  _424
REMARK  182  A    between atoms: _427  and  _429
REMARK  183  A    between atoms: _429  and  _430
REMARK  184  A    between atoms: _433  and  _435
REMARK  185  A    between atoms: _435  and  _436
REMARK  186  A    between atoms: _435  and  _438
REMARK  187  A    between atoms: _438  and  _439
REMARK  188  A    between atoms: _444  and  _445
REMARK  189  A    between atoms: _447  and  _449
REMARK  190  A    between atoms: _449  and  _450
REMARK  191  A    between atoms: _452  and  _454
REMARK  192  A    between atoms: _454  and  _455
REMARK  193  A    between atoms: _454  and  _457
REMARK  194  A    between atoms: _457  and  _458
REMARK  195  A    between atoms: _458  and  _459
REMARK  196  A    between atoms: _462  and  _464
REMARK  197  A    between atoms: _464  and  _465
REMARK  198  A    between atoms: _464  and  _467
REMARK  199  A    between atoms: _467  and  _468
REMARK  200  A    between atoms: _474  and  _476
REMARK  201  A    between atoms: _476  and  _477
REMARK  202  A    between atoms: _476  and  _479
REMARK  203  A    between atoms: _479  and  _480
REMARK  204  A    between atoms: _483  and  _485
REMARK  205  A    between atoms: _485  and  _486
REMARK  206  A    between atoms: _485  and  _488
REMARK  207  A    between atoms: _488  and  _489
REMARK  208  A    between atoms: _489  and  _490
REMARK  209  A    between atoms: _492  and  _494
REMARK  210  A    between atoms: _494  and  _495
REMARK  211  A    between atoms: _494  and  _497
REMARK  212  A    between atoms: _497  and  _498
REMARK  213  A    between atoms: _504  and  _506
REMARK  214  A    between atoms: _506  and  _507
REMARK  215  A    between atoms: _506  and  _509
REMARK  216  A    between atoms: _509  and  _510
REMARK  217  A    between atoms: _510  and  _511
REMARK  218  A    between atoms: _514  and  _516
REMARK  219  A    between atoms: _516  and  _517
REMARK  220  A    between atoms: _516  and  _519
REMARK  221  A    between atoms: _519  and  _520
REMARK  222  A    between atoms: _523  and  _525
REMARK  223  A    between atoms: _525  and  _526
REMARK  224  A    between atoms: _525  and  _528
REMARK  225  A    between atoms: _528  and  _529
REMARK  226  A    between atoms: _532  and  _534
REMARK  227  A    between atoms: _534  and  _535
REMARK  228  A    between atoms: _534  and  _537
REMARK  229  A    between atoms: _537  and  _538
REMARK  230  A    between atoms: _544  and  _546
REMARK  231  A    between atoms: _546  and  _547
REMARK  232  A    between atoms: _546  and  _549
REMARK  233  A    between atoms: _552  and  _554
REMARK  234  A    between atoms: _554  and  _555
REMARK  235  A    between atoms: _559  and  _560
REMARK  236  A    between atoms: _565  and  _567
REMARK  237  A    between atoms: _567  and  _568
REMARK  238  A    between atoms: _567  and  _570
REMARK  239  A    between atoms: _570  and  _571
REMARK  240  A    between atoms: _574  and  _576
REMARK  241  A    between atoms: _576  and  _577
REMARK  242  A    between atoms: _576  and  _579
REMARK  243  A    between atoms: _579  and  _580
REMARK  244  A    between atoms: _587  and  _588
REMARK  245  A    between atoms: _593  and  _595
REMARK  246  A    between atoms: _595  and  _596
REMARK  247  A    between atoms: _595  and  _598
REMARK  248  A    between atoms: _601  and  _603
REMARK  249  A    between atoms: _603  and  _604
REMARK  250  A    between atoms: _607  and  _609
REMARK  251  A    between atoms: _609  and  _610
REMARK  252  A    between atoms: _609  and  _612
REMARK  253  A    between atoms: _612  and  _613
REMARK  254  A    between atoms: _618  and  _619
REMARK  255  A    between atoms: _621  and  _623
REMARK  256  A    between atoms: _623  and  _624
REMARK  257  A    between atoms: _623  and  _626
REMARK  258  A    between atoms: _626  and  _627
REMARK  259  A    between atoms: _632  and  _634
REMARK  260  A    between atoms: _634  and  _635
REMARK  261  A    between atoms: _634  and  _637
REMARK  262  A    between atoms: _637  and  _638
REMARK  263  A    between atoms: _641  and  _643
REMARK  264  A    between atoms: _643  and  _644
REMARK  265  A    between atoms: _643  and  _646
REMARK  266  A    between atoms: _646  and  _647
REMARK  267  A    between atoms: _650  and  _652
REMARK  268  A    between atoms: _652  and  _653
REMARK  269  A    between atoms: _652  and  _655
REMARK  270  A    between atoms: _655  and  _656
REMARK  271  A    between atoms: _656  and  _657
REMARK  272  A    between atoms: _657  and  _658
REMARK  273  A    between atoms: _658  and  _659
REMARK  274  A    between atoms: _663  and  _665
REMARK  275  A    between atoms: _665  and  _666
REMARK  276  A    between atoms: _665  and  _668
REMARK  277  A    between atoms: _668  and  _669
REMARK  278  A    between atoms: _675  and  _677
REMARK  279  A    between atoms: _677  and  _678
REMARK  280  A    between atoms: _677  and  _680
REMARK  281  A    between atoms: _680  and  _681
REMARK  282  A    between atoms: _684  and  _686
REMARK  283  A    between atoms: _686  and  _687
REMARK  284  A    between atoms: _686  and  _689
REMARK  285  A    between atoms: _689  and  _690
REMARK  286  A    between atoms: _692  and  _694
REMARK  287  A    between atoms: _694  and  _695
REMARK  288  A    between atoms: _694  and  _697
REMARK  289  A    between atoms: _697  and  _698
REMARK  290  A    between atoms: _701  and  _703
REMARK  291  A    between atoms: _703  and  _704
REMARK  292  A    between atoms: _703  and  _706
REMARK  293  A    between atoms: _706  and  _707
REMARK  294  A    between atoms: _707  and  _708
REMARK  295  A    between atoms: _708  and  _709
REMARK  296  A    between atoms: _718  and  _720
REMARK  297  A    between atoms: _720  and  _721
REMARK  298  A    between atoms: _720  and  _723
REMARK  299  A    between atoms: _723  and  _724
REMARK  300  A    between atoms: _724  and  _725
REMARK  301  A    between atoms: _725  and  _726
REMARK  302  A    between atoms: _726  and  _727
REMARK  303  A    between atoms: _731  and  _733
REMARK  304  A    between atoms: _733  and  _734
REMARK  305  A    between atoms: _733  and  _736
REMARK  306  A    between atoms: _736  and  _737
REMARK  307  A    between atoms: _740  and  _742
REMARK  308  A    between atoms: _742  and  _743
REMARK  309  A    between atoms: _742  and  _745
REMARK  310  A    between atoms: _745  and  _746
REMARK  311  A    between atoms: _746  and  _747
REMARK  312  A    between atoms: _749  and  _751
REMARK  313  A    between atoms: _751  and  _752
REMARK  314  A    between atoms: _751  and  _754
REMARK  315  A    between atoms: _757  and  _759
REMARK  316  A    between atoms: _759  and  _760
REMARK  317  A    between atoms: _759  and  _762
REMARK  318  A    between atoms: _762  and  _763
REMARK                            x       y       z     vdW  Elec       q    Type
REMARK                         _______ _______ _______ _____ _____    ______ ____
ROOT
ATOM      1  O   HOH     1      14.840   4.413   4.183  0.00  0.00    +0.000 OA
ENDROOT
TORSDOF 0
REMARK  Name = ../refined-set-2016/4omk/4omk_pocket.pdb
REMARK  318 active torsions:
REMARK  status: ('A' for Active; 'I' for Inactive)
REMARK    1  A    between atoms: _1  and  _3
REMARK    2  A    between atoms: _3  and  _4
REMARK    3  A    between atoms: _3  and  _6
REMARK    4  A    between atoms: _6  and  _7
REMARK    5  A    between atoms: _10  and  _12
REMARK    6  A    between atoms: _12  and  _13
REMARK    7  A    between atoms: _12  and  _15
REMARK    8  A    between atoms: _15  and  _16
REMARK    9  A    between atoms: _21  and  _22
REMARK   10  A    between atoms: _24  and  _26
REMARK   11  A    between atoms: _26  and  _27
REMARK   12  A    between atoms: _26  and  _29
REMARK   13  A    between atoms: _29  and  _30
REMARK   14  A    between atoms: _33  and  _35
REMARK   15  A    between atoms: _35  and  _36
REMARK   16  A    between atoms: _35  and  _38
REMARK   17  A    between atoms: _38  and  _39
REMARK   18  A    between atoms: _41  and  _43
REMARK   19  A    between atoms: _43  and  _44
REMARK   20  A    between atoms: _43  and  _46
REMARK   21  A    between atoms: _46  and  _47
REMARK   22  A    between atoms: _57  and  _59
REMARK   23  A    between atoms: _59  and  _60
REMARK   24  A    between atoms: _59  and  _62
REMARK   25  A    between atoms: _62  and  _63
REMARK   26  A    between atoms: _66  and  _68
REMARK   27  A    between atoms: _68  and  _69
REMARK   28  A    between atoms: _68  and  _71
REMARK   29  A    between atoms: _71  and  _72
REMARK   30  A    between atoms: _75  and  _77
REMARK   31  A    between atoms: _77  and  _78
REMARK   32  A    between atoms: _77  and  _80
REMARK   33  A    between atoms: _80  and  _81
REMARK   34  A    between atoms: _84  and  _86
REMARK   35  A    between atoms: _86  and  _87
REMARK   36  A    between atoms: _86  and  _89
REMARK   37  A    between atoms: _89  and  _90
REMARK   38  A    between atoms: _93  and  _95
REMARK   39  A    between atoms: _95  and  _96
REMARK   40  A    between atoms: _99  and  _101
REMARK   41  A    between atoms: _101  and  _102
REMARK   42  A    between atoms: _101  and  _104
REMARK   43  A    between atoms: _104  and  _105
REMARK   44  A    between atoms: _105  and  _106
REMARK   45  A    between atoms: _106  and  _107
REMARK   46  A    between atoms: _107  and  _108
REMARK   47  A    between atoms: _112  and  _114
REMARK   48  A    between atoms: _114  and  _115
REMARK   49  A    between atoms: _117  and  _119
REMARK   50  A    between atoms: _119  and  _120
REMARK   51  A    between atoms: _119  and  _122
REMARK   52  A    between atoms: _122  and  _123
REMARK   53  A    between atoms: _126  and  _128
REMARK   54  A    between atoms: _128  and  _129
REMARK   55  A    between atoms: _128  and  _131
REMARK   56  A    between atoms: _131  and  _132
REMARK   57  A    between atoms: _135  and  _137
REMARK   58  A    between atoms: _137  and  _138
REMARK   59  A    between atoms: _137  and  _140
REMARK   60  A    between atoms: _140  and  _141
REMARK   61  A    between atoms: _147  and  _149
REMARK   62  A    between atoms: _149  and  _150
REMARK   63  A    between atoms: _149  and  _152
REMARK   64  A    between atoms: _152  and  _153
REMARK   65  A    between atoms: _155  and  _157
REMARK   66  A    between atoms: _157  and  _158
REMARK   67  A    between atoms: _157  and  _160
REMARK   68  A    between atoms: _160  and  _161
REMARK   69  A    between atoms: _161  and  _162
REMARK   70  A    between atoms: _162  and  _163
REMARK   71  A    between atoms: _163  and  _164
REMARK   72  A    between atoms: _168  and  _170
REMARK   73  A    between atoms: _170  and  _171
REMARK   74  A    between atoms: _170  and  _173
REMARK   75  A    between atoms: _173  and  _174
REMARK   76  A    between atoms: _174  and  _175
REMARK   77  A    between atoms: _180  and  _182
REMARK   78  A    between atoms: _182  and  _183
REMARK   79  A    between atoms: _182  and  _185
REMARK   80  A    between atoms: _185  and  _186
REMARK   81  A    between atoms: _189  and  _191
REMARK   82  A    between atoms: _191  and  _192
REMARK   83  A    between atoms: _191  and  _194
REMARK   84  A    between atoms: _194  and  _195
REMARK   85  A    between atoms: _198  and  _200
REMARK   86  A    between atoms: _200  and  _201
REMARK   87  A    between atoms: _200  and  _203
REMARK   88  A    between atoms: _203  and  _204
REMARK   89  A    between atoms: _207  and  _209
REMARK   90  A    between atoms: _209  and  _210
REMARK   91  A    between atoms: _209  and  _212
REMARK   92  A    between atoms: _212  and  _213
REMARK   93  A    between atoms: _213  and  _214
REMARK   94  A    between atoms: _214  and  _215
REMARK   95  A    between atoms: _224  and  _226
REMARK   96  A    between atoms: _226  and  _227
REMARK   97  A    between atoms: _226  and  _229
REMARK   98  A    between atoms: _229  and  _230
REMARK   99  A    between atoms: _233  and  _235
REMARK  100  A    between atoms: _235  and  _236
REMARK  101  A    between atoms: _235  and  _238
REMARK  102  A    between atoms: _238  and  _239
REMARK  103  A    between atoms: _239  and  _240
REMARK  104  A    between atoms: _240  and  _241
REMARK  105  A    between atoms: _241  and  _242
REMARK  106  A    between atoms: _246  and  _248
REMARK  107  A    between atoms: _248  and  _249
REMARK  108  A    between atoms: _248  and  _251
REMARK  109  A    between atoms: _251  and  _252
REMARK  110  A    between atoms: _252  and  _253
REMARK  111  A    between atoms: _255  and  _257
REMARK  112  A    between atoms: _257  and  _258
REMARK  113  A    between atoms: _257  and  _260
REMARK  114  A    between atoms: _260  and  _261
REMARK  115  A    between atoms: _261  and  _262
REMARK  116  A    between atoms: _265  and  _267
REMARK  117  A    between atoms: _267  and  _268
REMARK  118  A    between atoms: _267  and  _270
REMARK  119  A    between atoms: _272  and  _274
REMARK  120  A    between atoms: _274  and  _275
REMARK  121  A    between atoms: _274  and  _277
REMARK  122  A    between atoms: _277  and  _278
REMARK  123  A    between atoms: _281  and  _283
REMARK  124  A    between atoms: _283  and  _284
REMARK  125  A    between atoms: _283  and  _286
REMARK  126  A    between atoms: _286  and  _287
REMARK  127  A    between atoms: _290  and  _292
REMARK  128  A    between atoms: _292  and  _293
REMARK  129  A    between atoms: _292  and  _295
REMARK  130  A    between atoms: _295  and  _296
REMARK  131  A    between atoms: _301  and  _302
REMARK  132  A    between atoms: _304  and  _306
REMARK  133  A    between atoms: _306  and  _307
REMARK  134  A    between atoms: _306  and  _309
REMARK  135  A    between atoms: _309  and  _310
REMARK  136  A    between atoms: _313  and  _315
REMARK  137  A    between atoms: _315  and  _316
REMARK  138  A    between atoms: _315  and  _318
REMARK  139  A    between atoms: _320  and  _322
REMARK  140  A    between atoms: _322  and  _323
REMARK  141  A    between atoms: _322  and  _325
REMARK  142  A    between atoms: _325  and  _326
REMARK  143  A    between atoms: _329  and  _331
REMARK  144  A    between atoms: _331  and  _332
REMARK  145  A    between atoms: _334  and  _336
REMARK  146  A    between atoms: _336  and  _337
REMARK  147  A    between atoms: _336  and  _339
REMARK  148  A    between atoms: _339  and  _340
REMARK  149  A    between atoms: _340  and  _341
REMARK  150  A    between atoms: _341  and  _342
REMARK  151  A    between atoms: _342  and  _343
REMARK  152  A    between atoms: _347  and  _349
REMARK  153  A    between atoms: _349  and  _350
REMARK  154  A    between atoms: _349  and  _352
REMARK  155  A    between atoms: _352  and  _353
REMARK  156  A    between atoms: _358  and  _360
REMARK  157  A    between atoms: _360  and  _361
REMARK  158  A    between atoms: _360  and  _363
REMARK  159  A    between atoms: _363  and  _364
REMARK  160  A    between atoms: _367  and  _369
REMARK  161  A    between atoms: _369  and  _370
REMARK  162  A    between atoms: _369  and  _372
REMARK  163  A    between atoms: _372  and  _373
REMARK  164  A    between atoms: _383  and  _385
REMARK  165  A    between atoms: _385  and  _386
REMARK  166  A    between atoms: _385  and  _388
REMARK  167  A    between atoms: _388  and  _389
REMARK  168  A    between atoms: _389  and  _390
REMARK  169  A    between atoms: _390  and  _391
REMARK  170  A    between atoms: _391  and  _392
REMARK  171  A    between atoms: _397  and  _398
REMARK  172  A    between atoms: _403  and  _405
REMARK  173  A    between atoms: _405  and  _406
REMARK  174  A    between atoms: _409  and  _411
REMARK  175  A    between atoms: _411  and  _412
REMARK  176  A    between atoms: _411  and  _414
REMARK  177  A    between atoms: _417  and  _419
REMARK  178  A    between atoms: _419  and  _420
REMARK  179  A    between atoms: _419  and  _422
REMARK  180  A    between atoms: _422  and  _423
REMARK  181  A    between atoms: _423  and  _424
REMARK  182  A    between atoms: _427  and  _429
REMARK  183  A    between atoms: _429  and  _430
REMARK  184  A    between atoms: _433  and  _435
REMARK  185  A    between atoms: _435  and  _436
REMARK  186  A    between atoms: _435  and  _438
REMARK  187  A    between atoms: _438  and  _439
REMARK  188  A    between atoms: _444  and  _445
REMARK  189  A    between atoms: _447  and  _449
REMARK  190  A    between atoms: _449  and  _450
REMARK  191  A    between atoms: _452  and  _454
REMARK  192  A    between atoms: _454  and  _455
REMARK  193  A    between atoms: _454  and  _457
REMARK  194  A    between atoms: _457  and  _458
REMARK  195  A    between atoms: _458  and  _459
REMARK  196  A    between atoms: _462  and  _464
REMARK  197  A    between atoms: _464  and  _465
REMARK  198  A    between atoms: _464  and  _467
REMARK  199  A    between atoms: _467  and  _468
REMARK  200  A    between atoms: _474  and  _476
REMARK  201  A    between atoms: _476  and  _477
REMARK  202  A    between atoms: _476  and  _479
REMARK  203  A    between atoms: _479  and  _480
REMARK  204  A    between atoms: _483  and  _485
REMARK  205  A    between atoms: _485  and  _486
REMARK  206  A    between atoms: _485  and  _488
REMARK  207  A    between atoms: _488  and  _489
REMARK  208  A    between atoms: _489  and  _490
REMARK  209  A    between atoms: _492  and  _494
REMARK  210  A    between atoms: _494  and  _495
REMARK  211  A    between atoms: _494  and  _497
REMARK  212  A    between atoms: _497  and  _498
REMARK  213  A    between atoms: _504  and  _506
REMARK  214  A    between atoms: _506  and  _507
REMARK  215  A    between atoms: _506  and  _509
REMARK  216  A    between atoms: _509  and  _510
REMARK  217  A    between atoms: _510  and  _511
REMARK  218  A    between atoms: _514  and  _516
REMARK  219  A    between atoms: _516  and  _517
REMARK  220  A    between atoms: _516  and  _519
REMARK  221  A    between atoms: _519  and  _520
REMARK  222  A    between atoms: _523  and  _525
REMARK  223  A    between atoms: _525  and  _526
REMARK  224  A    between atoms: _525  and  _528
REMARK  225  A    between atoms: _528  and  _529
REMARK  226  A    between atoms: _532  and  _534
REMARK  227  A    between atoms: _534  and  _535
REMARK  228  A    between atoms: _534  and  _537
REMARK  229  A    between atoms: _537  and  _538
REMARK  230  A    between atoms: _544  and  _546
REMARK  231  A    between atoms: _546  and  _547
REMARK  232  A    between atoms: _546  and  _549
REMARK  233  A    between atoms: _552  and  _554
REMARK  234  A    between atoms: _554  and  _555
REMARK  235  A    between atoms: _559  and  _560
REMARK  236  A    between atoms: _565  and  _567
REMARK  237  A    between atoms: _567  and  _568
REMARK  238  A    between atoms: _567  and  _570
REMARK  239  A    between atoms: _570  and  _571
REMARK  240  A    between atoms: _574  and  _576
REMARK  241  A    between atoms: _576  and  _577
REMARK  242  A    between atoms: _576  and  _579
REMARK  243  A    between atoms: _579  and  _580
REMARK  244  A    between atoms: _587  and  _588
REMARK  245  A    between atoms: _593  and  _595
REMARK  246  A    between atoms: _595  and  _596
REMARK  247  A    between atoms: _595  and  _598
REMARK  248  A    between atoms: _601  and  _603
REMARK  249  A    between atoms: _603  and  _604
REMARK  250  A    between atoms: _607  and  _609
REMARK  251  A    between atoms: _609  and  _610
REMARK  252  A    between atoms: _609  and  _612
REMARK  253  A    between atoms: _612  and  _613
REMARK  254  A    between atoms: _618  and  _619
REMARK  255  A    between atoms: _621  and  _623
REMARK  256  A    between atoms: _623  and  _624
REMARK  257  A    between atoms: _623  and  _626
REMARK  258  A    between atoms: _626  and  _627
REMARK  259  A    between atoms: _632  and  _634
REMARK  260  A    between atoms: _634  and  _635
REMARK  261  A    between atoms: _634  and  _637
REMARK  262  A    between atoms: _637  and  _638
REMARK  263  A    between atoms: _641  and  _643
REMARK  264  A    between atoms: _643  and  _644
REMARK  265  A    between atoms: _643  and  _646
REMARK  266  A    between atoms: _646  and  _647
REMARK  267  A    between atoms: _650  and  _652
REMARK  268  A    between atoms: _652  and  _653
REMARK  269  A    between atoms: _652  and  _655
REMARK  270  A    between atoms: _655  and  _656
REMARK  271  A    between atoms: _656  and  _657
REMARK  272  A    between atoms: _657  and  _658
REMARK  273  A    between atoms: _658  and  _659
REMARK  274  A    between atoms: _663  and  _665
REMARK  275  A    between atoms: _665  and  _666
REMARK  276  A    between atoms: _665  and  _668
REMARK  277  A    between atoms: _668  and  _669
REMARK  278  A    between atoms: _675  and  _677
REMARK  279  A    between atoms: _677  and  _678
REMARK  280  A    between atoms: _677  and  _680
REMARK  281  A    between atoms: _680  and  _681
REMARK  282  A    between atoms: _684  and  _686
REMARK  283  A    between atoms: _686  and  _687
REMARK  284  A    between atoms: _686  and  _689
REMARK  285  A    between atoms: _689  and  _690
REMARK  286  A    between atoms: _692  and  _694
REMARK  287  A    between atoms: _694  and  _695
REMARK  288  A    between atoms: _694  and  _697
REMARK  289  A    between atoms: _697  and  _698
REMARK  290  A    between atoms: _701  and  _703
REMARK  291  A    between atoms: _703  and  _704
REMARK  292  A    between atoms: _703  and  _706
REMARK  293  A    between atoms: _706  and  _707
REMARK  294  A    between atoms: _707  and  _708
REMARK  295  A    between atoms: _708  and  _709
REMARK  296  A    between atoms: _718  and  _720
REMARK  297  A    between atoms: _720  and  _721
REMARK  298  A    between atoms: _720  and  _723
REMARK  299  A    between atoms: _723  and  _724
REMARK  300  A    between atoms: _724  and  _725
REMARK  301  A    between atoms: _725  and  _726
REMARK  302  A    between atoms: _726  and  _727
REMARK  303  A    between atoms: _731  and  _733
REMARK  304  A    between atoms: _733  and  _734
REMARK  305  A    between atoms: _733  and  _736
REMARK  306  A    between atoms: _736  and  _737
REMARK  307  A    between atoms: _740  and  _742
REMARK  308  A    between atoms: _742  and  _743
REMARK  309  A    between atoms: _742  and  _745
REMARK  310  A    between atoms: _745  and  _746
REMARK  311  A    between atoms: _746  and  _747
REMARK  312  A    between atoms: _749  and  _751
REMARK  313  A    between atoms: _751  and  _752
REMARK  314  A    between atoms: _751  and  _754
REMARK  315  A    between atoms: _757  and  _759
REMARK  316  A    between atoms: _759  and  _760
REMARK  317  A    between atoms: _759  and  _762
REMARK  318  A    between atoms: _762  and  _763
REMARK                            x       y       z     vdW  Elec       q    Type
REMARK                         _______ _______ _______ _____ _____    ______ ____
ROOT
ATOM      1  O   HOH     1      21.091  -4.571  14.125  0.00  0.00    +0.000 OA
ENDROOT
TORSDOF 0
REMARK  Name = ../refined-set-2016/4omk/4omk_pocket.pdb
REMARK  318 active torsions:
REMARK  status: ('A' for Active; 'I' for Inactive)
REMARK    1  A    between atoms: _1  and  _3
REMARK    2  A    between atoms: _3  and  _4
REMARK    3  A    between atoms: _3  and  _6
REMARK    4  A    between atoms: _6  and  _7
REMARK    5  A    between atoms: _10  and  _12
REMARK    6  A    between atoms: _12  and  _13
REMARK    7  A    between atoms: _12  and  _15
REMARK    8  A    between atoms: _15  and  _16
REMARK    9  A    between atoms: _21  and  _22
REMARK   10  A    between atoms: _24  and  _26
REMARK   11  A    between atoms: _26  and  _27
REMARK   12  A    between atoms: _26  and  _29
REMARK   13  A    between atoms: _29  and  _30
REMARK   14  A    between atoms: _33  and  _35
REMARK   15  A    between atoms: _35  and  _36
REMARK   16  A    between atoms: _35  and  _38
REMARK   17  A    between atoms: _38  and  _39
REMARK   18  A    between atoms: _41  and  _43
REMARK   19  A    between atoms: _43  and  _44
REMARK   20  A    between atoms: _43  and  _46
REMARK   21  A    between atoms: _46  and  _47
REMARK   22  A    between atoms: _57  and  _59
REMARK   23  A    between atoms: _59  and  _60
REMARK   24  A    between atoms: _59  and  _62
REMARK   25  A    between atoms: _62  and  _63
REMARK   26  A    between atoms: _66  and  _68
REMARK   27  A    between atoms: _68  and  _69
REMARK   28  A    between atoms: _68  and  _71
REMARK   29  A    between atoms: _71  and  _72
REMARK   30  A    between atoms: _75  and  _77
REMARK   31  A    between atoms: _77  and  _78
REMARK   32  A    between atoms: _77  and  _80
REMARK   33  A    between atoms: _80  and  _81
REMARK   34  A    between atoms: _84  and  _86
REMARK   35  A    between atoms: _86  and  _87
REMARK   36  A    between atoms: _86  and  _89
REMARK   37  A    between atoms: _89  and  _90
REMARK   38  A    between atoms: _93  and  _95
REMARK   39  A    between atoms: _95  and  _96
REMARK   40  A    between atoms: _99  and  _101
REMARK   41  A    between atoms: _101  and  _102
REMARK   42  A    between atoms: _101  and  _104
REMARK   43  A    between atoms: _104  and  _105
REMARK   44  A    between atoms: _105  and  _106
REMARK   45  A    between atoms: _106  and  _107
REMARK   46  A    between atoms: _107  and  _108
REMARK   47  A    between atoms: _112  and  _114
REMARK   48  A    between atoms: _114  and  _115
REMARK   49  A    between atoms: _117  and  _119
REMARK   50  A    between atoms: _119  and  _120
REMARK   51  A    between atoms: _119  and  _122
REMARK   52  A    between atoms: _122  and  _123
REMARK   53  A    between atoms: _126  and  _128
REMARK   54  A    between atoms: _128  and  _129
REMARK   55  A    between atoms: _128  and  _131
REMARK   56  A    between atoms: _131  and  _132
REMARK   57  A    between atoms: _135  and  _137
REMARK   58  A    between atoms: _137  and  _138
REMARK   59  A    between atoms: _137  and  _140
REMARK   60  A    between atoms: _140  and  _141
REMARK   61  A    between atoms: _147  and  _149
REMARK   62  A    between atoms: _149  and  _150
REMARK   63  A    between atoms: _149  and  _152
REMARK   64  A    between atoms: _152  and  _153
REMARK   65  A    between atoms: _155  and  _157
REMARK   66  A    between atoms: _157  and  _158
REMARK   67  A    between atoms: _157  and  _160
REMARK   68  A    between atoms: _160  and  _161
REMARK   69  A    between atoms: _161  and  _162
REMARK   70  A    between atoms: _162  and  _163
REMARK   71  A    between atoms: _163  and  _164
REMARK   72  A    between atoms: _168  and  _170
REMARK   73  A    between atoms: _170  and  _171
REMARK   74  A    between atoms: _170  and  _173
REMARK   75  A    between atoms: _173  and  _174
REMARK   76  A    between atoms: _174  and  _175
REMARK   77  A    between atoms: _180  and  _182
REMARK   78  A    between atoms: _182  and  _183
REMARK   79  A    between atoms: _182  and  _185
REMARK   80  A    between atoms: _185  and  _186
REMARK   81  A    between atoms: _189  and  _191
REMARK   82  A    between atoms: _191  and  _192
REMARK   83  A    between atoms: _191  and  _194
REMARK   84  A    between atoms: _194  and  _195
REMARK   85  A    between atoms: _198  and  _200
REMARK   86  A    between atoms: _200  and  _201
REMARK   87  A    between atoms: _200  and  _203
REMARK   88  A    between atoms: _203  and  _204
REMARK   89  A    between atoms: _207  and  _209
REMARK   90  A    between atoms: _209  and  _210
REMARK   91  A    between atoms: _209  and  _212
REMARK   92  A    between atoms: _212  and  _213
REMARK   93  A    between atoms: _213  and  _214
REMARK   94  A    between atoms: _214  and  _215
REMARK   95  A    between atoms: _224  and  _226
REMARK   96  A    between atoms: _226  and  _227
REMARK   97  A    between atoms: _226  and  _229
REMARK   98  A    between atoms: _229  and  _230
REMARK   99  A    between atoms: _233  and  _235
REMARK  100  A    between atoms: _235  and  _236
REMARK  101  A    between atoms: _235  and  _238
REMARK  102  A    between atoms: _238  and  _239
REMARK  103  A    between atoms: _239  and  _240
REMARK  104  A    between atoms: _240  and  _241
REMARK  105  A    between atoms: _241  and  _242
REMARK  106  A    between atoms: _246  and  _248
REMARK  107  A    between atoms: _248  and  _249
REMARK  108  A    between atoms: _248  and  _251
REMARK  109  A    between atoms: _251  and  _252
REMARK  110  A    between atoms: _252  and  _253
REMARK  111  A    between atoms: _255  and  _257
REMARK  112  A    between atoms: _257  and  _258
REMARK  113  A    between atoms: _257  and  _260
REMARK  114  A    between atoms: _260  and  _261
REMARK  115  A    between atoms: _261  and  _262
REMARK  116  A    between atoms: _265  and  _267
REMARK  117  A    between atoms: _267  and  _268
REMARK  118  A    between atoms: _267  and  _270
REMARK  119  A    between atoms: _272  and  _274
REMARK  120  A    between atoms: _274  and  _275
REMARK  121  A    between atoms: _274  and  _277
REMARK  122  A    between atoms: _277  and  _278
REMARK  123  A    between atoms: _281  and  _283
REMARK  124  A    between atoms: _283  and  _284
REMARK  125  A    between atoms: _283  and  _286
REMARK  126  A    between atoms: _286  and  _287
REMARK  127  A    between atoms: _290  and  _292
REMARK  128  A    between atoms: _292  and  _293
REMARK  129  A    between atoms: _292  and  _295
REMARK  130  A    between atoms: _295  and  _296
REMARK  131  A    between atoms: _301  and  _302
REMARK  132  A    between atoms: _304  and  _306
REMARK  133  A    between atoms: _306  and  _307
REMARK  134  A    between atoms: _306  and  _309
REMARK  135  A    between atoms: _309  and  _310
REMARK  136  A    between atoms: _313  and  _315
REMARK  137  A    between atoms: _315  and  _316
REMARK  138  A    between atoms: _315  and  _318
REMARK  139  A    between atoms: _320  and  _322
REMARK  140  A    between atoms: _322  and  _323
REMARK  141  A    between atoms: _322  and  _325
REMARK  142  A    between atoms: _325  and  _326
REMARK  143  A    between atoms: _329  and  _331
REMARK  144  A    between atoms: _331  and  _332
REMARK  145  A    between atoms: _334  and  _336
REMARK  146  A    between atoms: _336  and  _337
REMARK  147  A    between atoms: _336  and  _339
REMARK  148  A    between atoms: _339  and  _340
REMARK  149  A    between atoms: _340  and  _341
REMARK  150  A    between atoms: _341  and  _342
REMARK  151  A    between atoms: _342  and  _343
REMARK  152  A    between atoms: _347  and  _349
REMARK  153  A    between atoms: _349  and  _350
REMARK  154  A    between atoms: _349  and  _352
REMARK  155  A    between atoms: _352  and  _353
REMARK  156  A    between atoms: _358  and  _360
REMARK  157  A    between atoms: _360  and  _361
REMARK  158  A    between atoms: _360  and  _363
REMARK  159  A    between atoms: _363  and  _364
REMARK  160  A    between atoms: _367  and  _369
REMARK  161  A    between atoms: _369  and  _370
REMARK  162  A    between atoms: _369  and  _372
REMARK  163  A    between atoms: _372  and  _373
REMARK  164  A    between atoms: _383  and  _385
REMARK  165  A    between atoms: _385  and  _386
REMARK  166  A    between atoms: _385  and  _388
REMARK  167  A    between atoms: _388  and  _389
REMARK  168  A    between atoms: _389  and  _390
REMARK  169  A    between atoms: _390  and  _391
REMARK  170  A    between atoms: _391  and  _392
REMARK  171  A    between atoms: _397  and  _398
REMARK  172  A    between atoms: _403  and  _405
REMARK  173  A    between atoms: _405  and  _406
REMARK  174  A    between atoms: _409  and  _411
REMARK  175  A    between atoms: _411  and  _412
REMARK  176  A    between atoms: _411  and  _414
REMARK  177  A    between atoms: _417  and  _419
REMARK  178  A    between atoms: _419  and  _420
REMARK  179  A    between atoms: _419  and  _422
REMARK  180  A    between atoms: _422  and  _423
REMARK  181  A    between atoms: _423  and  _424
REMARK  182  A    between atoms: _427  and  _429
REMARK  183  A    between atoms: _429  and  _430
REMARK  184  A    between atoms: _433  and  _435
REMARK  185  A    between atoms: _435  and  _436
REMARK  186  A    between atoms: _435  and  _438
REMARK  187  A    between atoms: _438  and  _439
REMARK  188  A    between atoms: _444  and  _445
REMARK  189  A    between atoms: _447  and  _449
REMARK  190  A    between atoms: _449  and  _450
REMARK  191  A    between atoms: _452  and  _454
REMARK  192  A    between atoms: _454  and  _455
REMARK  193  A    between atoms: _454  and  _457
REMARK  194  A    between atoms: _457  and  _458
REMARK  195  A    between atoms: _458  and  _459
REMARK  196  A    between atoms: _462  and  _464
REMARK  197  A    between atoms: _464  and  _465
REMARK  198  A    between atoms: _464  and  _467
REMARK  199  A    between atoms: _467  and  _468
REMARK  200  A    between atoms: _474  and  _476
REMARK  201  A    between atoms: _476  and  _477
REMARK  202  A    between atoms: _476  and  _479
REMARK  203  A    between atoms: _479  and  _480
REMARK  204  A    between atoms: _483  and  _485
REMARK  205  A    between atoms: _485  and  _486
REMARK  206  A    between atoms: _485  and  _488
REMARK  207  A    between atoms: _488  and  _489
REMARK  208  A    between atoms: _489  and  _490
REMARK  209  A    between atoms: _492  and  _494
REMARK  210  A    between atoms: _494  and  _495
REMARK  211  A    between atoms: _494  and  _497
REMARK  212  A    between atoms: _497  and  _498
REMARK  213  A    between atoms: _504  and  _506
REMARK  214  A    between atoms: _506  and  _507
REMARK  215  A    between atoms: _506  and  _509
REMARK  216  A    between atoms: _509  and  _510
REMARK  217  A    between atoms: _510  and  _511
REMARK  218  A    between atoms: _514  and  _516
REMARK  219  A    between atoms: _516  and  _517
REMARK  220  A    between atoms: _516  and  _519
REMARK  221  A    between atoms: _519  and  _520
REMARK  222  A    between atoms: _523  and  _525
REMARK  223  A    between atoms: _525  and  _526
REMARK  224  A    between atoms: _525  and  _528
REMARK  225  A    between atoms: _528  and  _529
REMARK  226  A    between atoms: _532  and  _534
REMARK  227  A    between atoms: _534  and  _535
REMARK  228  A    between atoms: _534  and  _537
REMARK  229  A    between atoms: _537  and  _538
REMARK  230  A    between atoms: _544  and  _546
REMARK  231  A    between atoms: _546  and  _547
REMARK  232  A    between atoms: _546  and  _549
REMARK  233  A    between atoms: _552  and  _554
REMARK  234  A    between atoms: _554  and  _555
REMARK  235  A    between atoms: _559  and  _560
REMARK  236  A    between atoms: _565  and  _567
REMARK  237  A    between atoms: _567  and  _568
REMARK  238  A    between atoms: _567  and  _570
REMARK  239  A    between atoms: _570  and  _571
REMARK  240  A    between atoms: _574  and  _576
REMARK  241  A    between atoms: _576  and  _577
REMARK  242  A    between atoms: _576  and  _579
REMARK  243  A    between atoms: _579  and  _580
REMARK  244  A    between atoms: _587  and  _588
REMARK  245  A    between atoms: _593  and  _595
REMARK  246  A    between atoms: _595  and  _596
REMARK  247  A    between atoms: _595  and  _598
REMARK  248  A    between atoms: _601  and  _603
REMARK  249  A    between atoms: _603  and  _604
REMARK  250  A    between atoms: _607  and  _609
REMARK  251  A    between atoms: _609  and  _610
REMARK  252  A    between atoms: _609  and  _612
REMARK  253  A    between atoms: _612  and  _613
REMARK  254  A    between atoms: _618  and  _619
REMARK  255  A    between atoms: _621  and  _623
REMARK  256  A    between atoms: _623  and  _624
REMARK  257  A    between atoms: _623  and  _626
REMARK  258  A    between atoms: _626  and  _627
REMARK  259  A    between atoms: _632  and  _634
REMARK  260  A    between atoms: _634  and  _635
REMARK  261  A    between atoms: _634  and  _637
REMARK  262  A    between atoms: _637  and  _638
REMARK  263  A    between atoms: _641  and  _643
REMARK  264  A    between atoms: _643  and  _644
REMARK  265  A    between atoms: _643  and  _646
REMARK  266  A    between atoms: _646  and  _647
REMARK  267  A    between atoms: _650  and  _652
REMARK  268  A    between atoms: _652  and  _653
REMARK  269  A    between atoms: _652  and  _655
REMARK  270  A    between atoms: _655  and  _656
REMARK  271  A    between atoms: _656  and  _657
REMARK  272  A    between atoms: _657  and  _658
REMARK  273  A    between atoms: _658  and  _659
REMARK  274  A    between atoms: _663  and  _665
REMARK  275  A    between atoms: _665  and  _666
REMARK  276  A    between atoms: _665  and  _668
REMARK  277  A    between atoms: _668  and  _669
REMARK  278  A    between atoms: _675  and  _677
REMARK  279  A    between atoms: _677  and  _678
REMARK  280  A    between atoms: _677  and  _680
REMARK  281  A    between atoms: _680  and  _681
REMARK  282  A    between atoms: _684  and  _686
REMARK  283  A    between atoms: _686  and  _687
REMARK  284  A    between atoms: _686  and  _689
REMARK  285  A    between atoms: _689  and  _690
REMARK  286  A    between atoms: _692  and  _694
REMARK  287  A    between atoms: _694  and  _695
REMARK  288  A    between atoms: _694  and  _697
REMARK  289  A    between atoms: _697  and  _698
REMARK  290  A    between atoms: _701  and  _703
REMARK  291  A    between atoms: _703  and  _704
REMARK  292  A    between atoms: _703  and  _706
REMARK  293  A    between atoms: _706  and  _707
REMARK  294  A    between atoms: _707  and  _708
REMARK  295  A    between atoms: _708  and  _709
REMARK  296  A    between atoms: _718  and  _720
REMARK  297  A    between atoms: _720  and  _721
REMARK  298  A    between atoms: _720  and  _723
REMARK  299  A    between atoms: _723  and  _724
REMARK  300  A    between atoms: _724  and  _725
REMARK  301  A    between atoms: _725  and  _726
REMARK  302  A    between atoms: _726  and  _727
REMARK  303  A    between atoms: _731  and  _733
REMARK  304  A    between atoms: _733  and  _734
REMARK  305  A    between atoms: _733  and  _736
REMARK  306  A    between atoms: _736  and  _737
REMARK  307  A    between atoms: _740  and  _742
REMARK  308  A    between atoms: _742  and  _743
REMARK  309  A    between atoms: _742  and  _745
REMARK  310  A    between atoms: _745  and  _746
REMARK  311  A    between atoms: _746  and  _747
REMARK  312  A    between atoms: _749  and  _751
REMARK  313  A    between atoms: _751  and  _752
REMARK  314  A    between atoms: _751  and  _754
REMARK  315  A    between atoms: _757  and  _759
REMARK  316  A    between atoms: _759  and  _760
REMARK  317  A    between atoms: _759  and  _762
REMARK  318  A    between atoms: _762  and  _763
REMARK                            x       y       z     vdW  Elec       q    Type
REMARK                         _______ _______ _______ _____ _____    ______ ____
ROOT
ATOM      1  O   HOH     1       7.331  -2.207  10.356  0.00  0.00    +0.000 OA
ENDROOT
TORSDOF 0
REMARK  Name = ../refined-set-2016/4omk/4omk_pocket.pdb
REMARK  318 active torsions:
REMARK  status: ('A' for Active; 'I' for Inactive)
REMARK    1  A    between atoms: _1  and  _3
REMARK    2  A    between atoms: _3  and  _4
REMARK    3  A    between atoms: _3  and  _6
REMARK    4  A    between atoms: _6  and  _7
REMARK    5  A    between atoms: _10  and  _12
REMARK    6  A    between atoms: _12  and  _13
REMARK    7  A    between atoms: _12  and  _15
REMARK    8  A    between atoms: _15  and  _16
REMARK    9  A    between atoms: _21  and  _22
REMARK   10  A    between atoms: _24  and  _26
REMARK   11  A    between atoms: _26  and  _27
REMARK   12  A    between atoms: _26  and  _29
REMARK   13  A    between atoms: _29  and  _30
REMARK   14  A    between atoms: _33  and  _35
REMARK   15  A    between atoms: _35  and  _36
REMARK   16  A    between atoms: _35  and  _38
REMARK   17  A    between atoms: _38  and  _39
REMARK   18  A    between atoms: _41  and  _43
REMARK   19  A    between atoms: _43  and  _44
REMARK   20  A    between atoms: _43  and  _46
REMARK   21  A    between atoms: _46  and  _47
REMARK   22  A    between atoms: _57  and  _59
REMARK   23  A    between atoms: _59  and  _60
REMARK   24  A    between atoms: _59  and  _62
REMARK   25  A    between atoms: _62  and  _63
REMARK   26  A    between atoms: _66  and  _68
REMARK   27  A    between atoms: _68  and  _69
REMARK   28  A    between atoms: _68  and  _71
REMARK   29  A    between atoms: _71  and  _72
REMARK   30  A    between atoms: _75  and  _77
REMARK   31  A    between atoms: _77  and  _78
REMARK   32  A    between atoms: _77  and  _80
REMARK   33  A    between atoms: _80  and  _81
REMARK   34  A    between atoms: _84  and  _86
REMARK   35  A    between atoms: _86  and  _87
REMARK   36  A    between atoms: _86  and  _89
REMARK   37  A    between atoms: _89  and  _90
REMARK   38  A    between atoms: _93  and  _95
REMARK   39  A    between atoms: _95  and  _96
REMARK   40  A    between atoms: _99  and  _101
REMARK   41  A    between atoms: _101  and  _102
REMARK   42  A    between atoms: _101  and  _104
REMARK   43  A    between atoms: _104  and  _105
REMARK   44  A    between atoms: _105  and  _106
REMARK   45  A    between atoms: _106  and  _107
REMARK   46  A    between atoms: _107  and  _108
REMARK   47  A    between atoms: _112  and  _114
REMARK   48  A    between atoms: _114  and  _115
REMARK   49  A    between atoms: _117  and  _119
REMARK   50  A    between atoms: _119  and  _120
REMARK   51  A    between atoms: _119  and  _122
REMARK   52  A    between atoms: _122  and  _123
REMARK   53  A    between atoms: _126  and  _128
REMARK   54  A    between atoms: _128  and  _129
REMARK   55  A    between atoms: _128  and  _131
REMARK   56  A    between atoms: _131  and  _132
REMARK   57  A    between atoms: _135  and  _137
REMARK   58  A    between atoms: _137  and  _138
REMARK   59  A    between atoms: _137  and  _140
REMARK   60  A    between atoms: _140  and  _141
REMARK   61  A    between atoms: _147  and  _149
REMARK   62  A    between atoms: _149  and  _150
REMARK   63  A    between atoms: _149  and  _152
REMARK   64  A    between atoms: _152  and  _153
REMARK   65  A    between atoms: _155  and  _157
REMARK   66  A    between atoms: _157  and  _158
REMARK   67  A    between atoms: _157  and  _160
REMARK   68  A    between atoms: _160  and  _161
REMARK   69  A    between atoms: _161  and  _162
REMARK   70  A    between atoms: _162  and  _163
REMARK   71  A    between atoms: _163  and  _164
REMARK   72  A    between atoms: _168  and  _170
REMARK   73  A    between atoms: _170  and  _171
REMARK   74  A    between atoms: _170  and  _173
REMARK   75  A    between atoms: _173  and  _174
REMARK   76  A    between atoms: _174  and  _175
REMARK   77  A    between atoms: _180  and  _182
REMARK   78  A    between atoms: _182  and  _183
REMARK   79  A    between atoms: _182  and  _185
REMARK   80  A    between atoms: _185  and  _186
REMARK   81  A    between atoms: _189  and  _191
REMARK   82  A    between atoms: _191  and  _192
REMARK   83  A    between atoms: _191  and  _194
REMARK   84  A    between atoms: _194  and  _195
REMARK   85  A    between atoms: _198  and  _200
REMARK   86  A    between atoms: _200  and  _201
REMARK   87  A    between atoms: _200  and  _203
REMARK   88  A    between atoms: _203  and  _204
REMARK   89  A    between atoms: _207  and  _209
REMARK   90  A    between atoms: _209  and  _210
REMARK   91  A    between atoms: _209  and  _212
REMARK   92  A    between atoms: _212  and  _213
REMARK   93  A    between atoms: _213  and  _214
REMARK   94  A    between atoms: _214  and  _215
REMARK   95  A    between atoms: _224  and  _226
REMARK   96  A    between atoms: _226  and  _227
REMARK   97  A    between atoms: _226  and  _229
REMARK   98  A    between atoms: _229  and  _230
REMARK   99  A    between atoms: _233  and  _235
REMARK  100  A    between atoms: _235  and  _236
REMARK  101  A    between atoms: _235  and  _238
REMARK  102  A    between atoms: _238  and  _239
REMARK  103  A    between atoms: _239  and  _240
REMARK  104  A    between atoms: _240  and  _241
REMARK  105  A    between atoms: _241  and  _242
REMARK  106  A    between atoms: _246  and  _248
REMARK  107  A    between atoms: _248  and  _249
REMARK  108  A    between atoms: _248  and  _251
REMARK  109  A    between atoms: _251  and  _252
REMARK  110  A    between atoms: _252  and  _253
REMARK  111  A    between atoms: _255  and  _257
REMARK  112  A    between atoms: _257  and  _258
REMARK  113  A    between atoms: _257  and  _260
REMARK  114  A    between atoms: _260  and  _261
REMARK  115  A    between atoms: _261  and  _262
REMARK  116  A    between atoms: _265  and  _267
REMARK  117  A    between atoms: _267  and  _268
REMARK  118  A    between atoms: _267  and  _270
REMARK  119  A    between atoms: _272  and  _274
REMARK  120  A    between atoms: _274  and  _275
REMARK  121  A    between atoms: _274  and  _277
REMARK  122  A    between atoms: _277  and  _278
REMARK  123  A    between atoms: _281  and  _283
REMARK  124  A    between atoms: _283  and  _284
REMARK  125  A    between atoms: _283  and  _286
REMARK  126  A    between atoms: _286  and  _287
REMARK  127  A    between atoms: _290  and  _292
REMARK  128  A    between atoms: _292  and  _293
REMARK  129  A    between atoms: _292  and  _295
REMARK  130  A    between atoms: _295  and  _296
REMARK  131  A    between atoms: _301  and  _302
REMARK  132  A    between atoms: _304  and  _306
REMARK  133  A    between atoms: _306  and  _307
REMARK  134  A    between atoms: _306  and  _309
REMARK  135  A    between atoms: _309  and  _310
REMARK  136  A    between atoms: _313  and  _315
REMARK  137  A    between atoms: _315  and  _316
REMARK  138  A    between atoms: _315  and  _318
REMARK  139  A    between atoms: _320  and  _322
REMARK  140  A    between atoms: _322  and  _323
REMARK  141  A    between atoms: _322  and  _325
REMARK  142  A    between atoms: _325  and  _326
REMARK  143  A    between atoms: _329  and  _331
REMARK  144  A    between atoms: _331  and  _332
REMARK  145  A    between atoms: _334  and  _336
REMARK  146  A    between atoms: _336  and  _337
REMARK  147  A    between atoms: _336  and  _339
REMARK  148  A    between atoms: _339  and  _340
REMARK  149  A    between atoms: _340  and  _341
REMARK  150  A    between atoms: _341  and  _342
REMARK  151  A    between atoms: _342  and  _343
REMARK  152  A    between atoms: _347  and  _349
REMARK  153  A    between atoms: _349  and  _350
REMARK  154  A    between atoms: _349  and  _352
REMARK  155  A    between atoms: _352  and  _353
REMARK  156  A    between atoms: _358  and  _360
REMARK  157  A    between atoms: _360  and  _361
REMARK  158  A    between atoms: _360  and  _363
REMARK  159  A    between atoms: _363  and  _364
REMARK  160  A    between atoms: _367  and  _369
REMARK  161  A    between atoms: _369  and  _370
REMARK  162  A    between atoms: _369  and  _372
REMARK  163  A    between atoms: _372  and  _373
REMARK  164  A    between atoms: _383  and  _385
REMARK  165  A    between atoms: _385  and  _386
REMARK  166  A    between atoms: _385  and  _388
REMARK  167  A    between atoms: _388  and  _389
REMARK  168  A    between atoms: _389  and  _390
REMARK  169  A    between atoms: _390  and  _391
REMARK  170  A    between atoms: _391  and  _392
REMARK  171  A    between atoms: _397  and  _398
REMARK  172  A    between atoms: _403  and  _405
REMARK  173  A    between atoms: _405  and  _406
REMARK  174  A    between atoms: _409  and  _411
REMARK  175  A    between atoms: _411  and  _412
REMARK  176  A    between atoms: _411  and  _414
REMARK  177  A    between atoms: _417  and  _419
REMARK  178  A    between atoms: _419  and  _420
REMARK  179  A    between atoms: _419  and  _422
REMARK  180  A    between atoms: _422  and  _423
REMARK  181  A    between atoms: _423  and  _424
REMARK  182  A    between atoms: _427  and  _429
REMARK  183  A    between atoms: _429  and  _430
REMARK  184  A    between atoms: _433  and  _435
REMARK  185  A    between atoms: _435  and  _436
REMARK  186  A    between atoms: _435  and  _438
REMARK  187  A    between atoms: _438  and  _439
REMARK  188  A    between atoms: _444  and  _445
REMARK  189  A    between atoms: _447  and  _449
REMARK  190  A    between atoms: _449  and  _450
REMARK  191  A    between atoms: _452  and  _454
REMARK  192  A    between atoms: _454  and  _455
REMARK  193  A    between atoms: _454  and  _457
REMARK  194  A    between atoms: _457  and  _458
REMARK  195  A    between atoms: _458  and  _459
REMARK  196  A    between atoms: _462  and  _464
REMARK  197  A    between atoms: _464  and  _465
REMARK  198  A    between atoms: _464  and  _467
REMARK  199  A    between atoms: _467  and  _468
REMARK  200  A    between atoms: _474  and  _476
REMARK  201  A    between atoms: _476  and  _477
REMARK  202  A    between atoms: _476  and  _479
REMARK  203  A    between atoms: _479  and  _480
REMARK  204  A    between atoms: _483  and  _485
REMARK  205  A    between atoms: _485  and  _486
REMARK  206  A    between atoms: _485  and  _488
REMARK  207  A    between atoms: _488  and  _489
REMARK  208  A    between atoms: _489  and  _490
REMARK  209  A    between atoms: _492  and  _494
REMARK  210  A    between atoms: _494  and  _495
REMARK  211  A    between atoms: _494  and  _497
REMARK  212  A    between atoms: _497  and  _498
REMARK  213  A    between atoms: _504  and  _506
REMARK  214  A    between atoms: _506  and  _507
REMARK  215  A    between atoms: _506  and  _509
REMARK  216  A    between atoms: _509  and  _510
REMARK  217  A    between atoms: _510  and  _511
REMARK  218  A    between atoms: _514  and  _516
REMARK  219  A    between atoms: _516  and  _517
REMARK  220  A    between atoms: _516  and  _519
REMARK  221  A    between atoms: _519  and  _520
REMARK  222  A    between atoms: _523  and  _525
REMARK  223  A    between atoms: _525  and  _526
REMARK  224  A    between atoms: _525  and  _528
REMARK  225  A    between atoms: _528  and  _529
REMARK  226  A    between atoms: _532  and  _534
REMARK  227  A    between atoms: _534  and  _535
REMARK  228  A    between atoms: _534  and  _537
REMARK  229  A    between atoms: _537  and  _538
REMARK  230  A    between atoms: _544  and  _546
REMARK  231  A    between atoms: _546  and  _547
REMARK  232  A    between atoms: _546  and  _549
REMARK  233  A    between atoms: _552  and  _554
REMARK  234  A    between atoms: _554  and  _555
REMARK  235  A    between atoms: _559  and  _560
REMARK  236  A    between atoms: _565  and  _567
REMARK  237  A    between atoms: _567  and  _568
REMARK  238  A    between atoms: _567  and  _570
REMARK  239  A    between atoms: _570  and  _571
REMARK  240  A    between atoms: _574  and  _576
REMARK  241  A    between atoms: _576  and  _577
REMARK  242  A    between atoms: _576  and  _579
REMARK  243  A    between atoms: _579  and  _580
REMARK  244  A    between atoms: _587  and  _588
REMARK  245  A    between atoms: _593  and  _595
REMARK  246  A    between atoms: _595  and  _596
REMARK  247  A    between atoms: _595  and  _598
REMARK  248  A    between atoms: _601  and  _603
REMARK  249  A    between atoms: _603  and  _604
REMARK  250  A    between atoms: _607  and  _609
REMARK  251  A    between atoms: _609  and  _610
REMARK  252  A    between atoms: _609  and  _612
REMARK  253  A    between atoms: _612  and  _613
REMARK  254  A    between atoms: _618  and  _619
REMARK  255  A    between atoms: _621  and  _623
REMARK  256  A    between atoms: _623  and  _624
REMARK  257  A    between atoms: _623  and  _626
REMARK  258  A    between atoms: _626  and  _627
REMARK  259  A    between atoms: _632  and  _634
REMARK  260  A    between atoms: _634  and  _635
REMARK  261  A    between atoms: _634  and  _637
REMARK  262  A    between atoms: _637  and  _638
REMARK  263  A    between atoms: _641  and  _643
REMARK  264  A    between atoms: _643  and  _644
REMARK  265  A    between atoms: _643  and  _646
REMARK  266  A    between atoms: _646  and  _647
REMARK  267  A    between atoms: _650  and  _652
REMARK  268  A    between atoms: _652  and  _653
REMARK  269  A    between atoms: _652  and  _655
REMARK  270  A    between atoms: _655  and  _656
REMARK  271  A    between atoms: _656  and  _657
REMARK  272  A    between atoms: _657  and  _658
REMARK  273  A    between atoms: _658  and  _659
REMARK  274  A    between atoms: _663  and  _665
REMARK  275  A    between atoms: _665  and  _666
REMARK  276  A    between atoms: _665  and  _668
REMARK  277  A    between atoms: _668  and  _669
REMARK  278  A    between atoms: _675  and  _677
REMARK  279  A    between atoms: _677  and  _678
REMARK  280  A    between atoms: _677  and  _680
REMARK  281  A    between atoms: _680  and  _681
REMARK  282  A    between atoms: _684  and  _686
REMARK  283  A    between atoms: _686  and  _687
REMARK  284  A    between atoms: _686  and  _689
REMARK  285  A    between atoms: _689  and  _690
REMARK  286  A    between atoms: _692  and  _694
REMARK  287  A    between atoms: _694  and  _695
REMARK  288  A    between atoms: _694  and  _697
REMARK  289  A    between atoms: _697  and  _698
REMARK  290  A    between atoms: _701  and  _703
REMARK  291  A    between atoms: _703  and  _704
REMARK  292  A    between atoms: _703  and  _706
REMARK  293  A    between atoms: _706  and  _707
REMARK  294  A    between atoms: _707  and  _708
REMARK  295  A    between atoms: _708  and  _709
REMARK  296  A    between atoms: _718  and  _720
REMARK  297  A    between atoms: _720  and  _721
REMARK  298  A    between atoms: _720  and  _723
REMARK  299  A    between atoms: _723  and  _724
REMARK  300  A    between atoms: _724  and  _725
REMARK  301  A    between atoms: _725  and  _726
REMARK  302  A    between atoms: _726  and  _727
REMARK  303  A    between atoms: _731  and  _733
REMARK  304  A    between atoms: _733  and  _734
REMARK  305  A    between atoms: _733  and  _736
REMARK  306  A    between atoms: _736  and  _737
REMARK  307  A    between atoms: _740  and  _742
REMARK  308  A    between atoms: _742  and  _743
REMARK  309  A    between atoms: _742  and  _745
REMARK  310  A    between atoms: _745  and  _746
REMARK  311  A    between atoms: _746  and  _747
REMARK  312  A    between atoms: _749  and  _751
REMARK  313  A    between atoms: _751  and  _752
REMARK  314  A    between atoms: _751  and  _754
REMARK  315  A    between atoms: _757  and  _759
REMARK  316  A    between atoms: _759  and  _760
REMARK  317  A    between atoms: _759  and  _762
REMARK  318  A    between atoms: _762  and  _763
REMARK                            x       y       z     vdW  Elec       q    Type
REMARK                         _______ _______ _______ _____ _____    ______ ____
ROOT
ATOM      1  O   HOH     1      11.919  20.091   9.185  0.00  0.00    +0.000 OA
ENDROOT
TORSDOF 0
REMARK  Name = ../refined-set-2016/4omk/4omk_pocket.pdb
REMARK  318 active torsions:
REMARK  status: ('A' for Active; 'I' for Inactive)
REMARK    1  A    between atoms: _1  and  _3
REMARK    2  A    between atoms: _3  and  _4
REMARK    3  A    between atoms: _3  and  _6
REMARK    4  A    between atoms: _6  and  _7
REMARK    5  A    between atoms: _10  and  _12
REMARK    6  A    between atoms: _12  and  _13
REMARK    7  A    between atoms: _12  and  _15
REMARK    8  A    between atoms: _15  and  _16
REMARK    9  A    between atoms: _21  and  _22
REMARK   10  A    between atoms: _24  and  _26
REMARK   11  A    between atoms: _26  and  _27
REMARK   12  A    between atoms: _26  and  _29
REMARK   13  A    between atoms: _29  and  _30
REMARK   14  A    between atoms: _33  and  _35
REMARK   15  A    between atoms: _35  and  _36
REMARK   16  A    between atoms: _35  and  _38
REMARK   17  A    between atoms: _38  and  _39
REMARK   18  A    between atoms: _41  and  _43
REMARK   19  A    between atoms: _43  and  _44
REMARK   20  A    between atoms: _43  and  _46
REMARK   21  A    between atoms: _46  and  _47
REMARK   22  A    between atoms: _57  and  _59
REMARK   23  A    between atoms: _59  and  _60
REMARK   24  A    between atoms: _59  and  _62
REMARK   25  A    between atoms: _62  and  _63
REMARK   26  A    between atoms: _66  and  _68
REMARK   27  A    between atoms: _68  and  _69
REMARK   28  A    between atoms: _68  and  _71
REMARK   29  A    between atoms: _71  and  _72
REMARK   30  A    between atoms: _75  and  _77
REMARK   31  A    between atoms: _77  and  _78
REMARK   32  A    between atoms: _77  and  _80
REMARK   33  A    between atoms: _80  and  _81
REMARK   34  A    between atoms: _84  and  _86
REMARK   35  A    between atoms: _86  and  _87
REMARK   36  A    between atoms: _86  and  _89
REMARK   37  A    between atoms: _89  and  _90
REMARK   38  A    between atoms: _93  and  _95
REMARK   39  A    between atoms: _95  and  _96
REMARK   40  A    between atoms: _99  and  _101
REMARK   41  A    between atoms: _101  and  _102
REMARK   42  A    between atoms: _101  and  _104
REMARK   43  A    between atoms: _104  and  _105
REMARK   44  A    between atoms: _105  and  _106
REMARK   45  A    between atoms: _106  and  _107
REMARK   46  A    between atoms: _107  and  _108
REMARK   47  A    between atoms: _112  and  _114
REMARK   48  A    between atoms: _114  and  _115
REMARK   49  A    between atoms: _117  and  _119
REMARK   50  A    between atoms: _119  and  _120
REMARK   51  A    between atoms: _119  and  _122
REMARK   52  A    between atoms: _122  and  _123
REMARK   53  A    between atoms: _126  and  _128
REMARK   54  A    between atoms: _128  and  _129
REMARK   55  A    between atoms: _128  and  _131
REMARK   56  A    between atoms: _131  and  _132
REMARK   57  A    between atoms: _135  and  _137
REMARK   58  A    between atoms: _137  and  _138
REMARK   59  A    between atoms: _137  and  _140
REMARK   60  A    between atoms: _140  and  _141
REMARK   61  A    between atoms: _147  and  _149
REMARK   62  A    between atoms: _149  and  _150
REMARK   63  A    between atoms: _149  and  _152
REMARK   64  A    between atoms: _152  and  _153
REMARK   65  A    between atoms: _155  and  _157
REMARK   66  A    between atoms: _157  and  _158
REMARK   67  A    between atoms: _157  and  _160
REMARK   68  A    between atoms: _160  and  _161
REMARK   69  A    between atoms: _161  and  _162
REMARK   70  A    between atoms: _162  and  _163
REMARK   71  A    between atoms: _163  and  _164
REMARK   72  A    between atoms: _168  and  _170
REMARK   73  A    between atoms: _170  and  _171
REMARK   74  A    between atoms: _170  and  _173
REMARK   75  A    between atoms: _173  and  _174
REMARK   76  A    between atoms: _174  and  _175
REMARK   77  A    between atoms: _180  and  _182
REMARK   78  A    between atoms: _182  and  _183
REMARK   79  A    between atoms: _182  and  _185
REMARK   80  A    between atoms: _185  and  _186
REMARK   81  A    between atoms: _189  and  _191
REMARK   82  A    between atoms: _191  and  _192
REMARK   83  A    between atoms: _191  and  _194
REMARK   84  A    between atoms: _194  and  _195
REMARK   85  A    between atoms: _198  and  _200
REMARK   86  A    between atoms: _200  and  _201
REMARK   87  A    between atoms: _200  and  _203
REMARK   88  A    between atoms: _203  and  _204
REMARK   89  A    between atoms: _207  and  _209
REMARK   90  A    between atoms: _209  and  _210
REMARK   91  A    between atoms: _209  and  _212
REMARK   92  A    between atoms: _212  and  _213
REMARK   93  A    between atoms: _213  and  _214
REMARK   94  A    between atoms: _214  and  _215
REMARK   95  A    between atoms: _224  and  _226
REMARK   96  A    between atoms: _226  and  _227
REMARK   97  A    between atoms: _226  and  _229
REMARK   98  A    between atoms: _229  and  _230
REMARK   99  A    between atoms: _233  and  _235
REMARK  100  A    between atoms: _235  and  _236
REMARK  101  A    between atoms: _235  and  _238
REMARK  102  A    between atoms: _238  and  _239
REMARK  103  A    between atoms: _239  and  _240
REMARK  104  A    between atoms: _240  and  _241
REMARK  105  A    between atoms: _241  and  _242
REMARK  106  A    between atoms: _246  and  _248
REMARK  107  A    between atoms: _248  and  _249
REMARK  108  A    between atoms: _248  and  _251
REMARK  109  A    between atoms: _251  and  _252
REMARK  110  A    between atoms: _252  and  _253
REMARK  111  A    between atoms: _255  and  _257
REMARK  112  A    between atoms: _257  and  _258
REMARK  113  A    between atoms: _257  and  _260
REMARK  114  A    between atoms: _260  and  _261
REMARK  115  A    between atoms: _261  and  _262
REMARK  116  A    between atoms: _265  and  _267
REMARK  117  A    between atoms: _267  and  _268
REMARK  118  A    between atoms: _267  and  _270
REMARK  119  A    between atoms: _272  and  _274
REMARK  120  A    between atoms: _274  and  _275
REMARK  121  A    between atoms: _274  and  _277
REMARK  122  A    between atoms: _277  and  _278
REMARK  123  A    between atoms: _281  and  _283
REMARK  124  A    between atoms: _283  and  _284
REMARK  125  A    between atoms: _283  and  _286
REMARK  126  A    between atoms: _286  and  _287
REMARK  127  A    between atoms: _290  and  _292
REMARK  128  A    between atoms: _292  and  _293
REMARK  129  A    between atoms: _292  and  _295
REMARK  130  A    between atoms: _295  and  _296
REMARK  131  A    between atoms: _301  and  _302
REMARK  132  A    between atoms: _304  and  _306
REMARK  133  A    between atoms: _306  and  _307
REMARK  134  A    between atoms: _306  and  _309
REMARK  135  A    between atoms: _309  and  _310
REMARK  136  A    between atoms: _313  and  _315
REMARK  137  A    between atoms: _315  and  _316
REMARK  138  A    between atoms: _315  and  _318
REMARK  139  A    between atoms: _320  and  _322
REMARK  140  A    between atoms: _322  and  _323
REMARK  141  A    between atoms: _322  and  _325
REMARK  142  A    between atoms: _325  and  _326
REMARK  143  A    between atoms: _329  and  _331
REMARK  144  A    between atoms: _331  and  _332
REMARK  145  A    between atoms: _334  and  _336
REMARK  146  A    between atoms: _336  and  _337
REMARK  147  A    between atoms: _336  and  _339
REMARK  148  A    between atoms: _339  and  _340
REMARK  149  A    between atoms: _340  and  _341
REMARK  150  A    between atoms: _341  and  _342
REMARK  151  A    between atoms: _342  and  _343
REMARK  152  A    between atoms: _347  and  _349
REMARK  153  A    between atoms: _349  and  _350
REMARK  154  A    between atoms: _349  and  _352
REMARK  155  A    between atoms: _352  and  _353
REMARK  156  A    between atoms: _358  and  _360
REMARK  157  A    between atoms: _360  and  _361
REMARK  158  A    between atoms: _360  and  _363
REMARK  159  A    between atoms: _363  and  _364
REMARK  160  A    between atoms: _367  and  _369
REMARK  161  A    between atoms: _369  and  _370
REMARK  162  A    between atoms: _369  and  _372
REMARK  163  A    between atoms: _372  and  _373
REMARK  164  A    between atoms: _383  and  _385
REMARK  165  A    between atoms: _385  and  _386
REMARK  166  A    between atoms: _385  and  _388
REMARK  167  A    between atoms: _388  and  _389
REMARK  168  A    between atoms: _389  and  _390
REMARK  169  A    between atoms: _390  and  _391
REMARK  170  A    between atoms: _391  and  _392
REMARK  171  A    between atoms: _397  and  _398
REMARK  172  A    between atoms: _403  and  _405
REMARK  173  A    between atoms: _405  and  _406
REMARK  174  A    between atoms: _409  and  _411
REMARK  175  A    between atoms: _411  and  _412
REMARK  176  A    between atoms: _411  and  _414
REMARK  177  A    between atoms: _417  and  _419
REMARK  178  A    between atoms: _419  and  _420
REMARK  179  A    between atoms: _419  and  _422
REMARK  180  A    between atoms: _422  and  _423
REMARK  181  A    between atoms: _423  and  _424
REMARK  182  A    between atoms: _427  and  _429
REMARK  183  A    between atoms: _429  and  _430
REMARK  184  A    between atoms: _433  and  _435
REMARK  185  A    between atoms: _435  and  _436
REMARK  186  A    between atoms: _435  and  _438
REMARK  187  A    between atoms: _438  and  _439
REMARK  188  A    between atoms: _444  and  _445
REMARK  189  A    between atoms: _447  and  _449
REMARK  190  A    between atoms: _449  and  _450
REMARK  191  A    between atoms: _452  and  _454
REMARK  192  A    between atoms: _454  and  _455
REMARK  193  A    between atoms: _454  and  _457
REMARK  194  A    between atoms: _457  and  _458
REMARK  195  A    between atoms: _458  and  _459
REMARK  196  A    between atoms: _462  and  _464
REMARK  197  A    between atoms: _464  and  _465
REMARK  198  A    between atoms: _464  and  _467
REMARK  199  A    between atoms: _467  and  _468
REMARK  200  A    between atoms: _474  and  _476
REMARK  201  A    between atoms: _476  and  _477
REMARK  202  A    between atoms: _476  and  _479
REMARK  203  A    between atoms: _479  and  _480
REMARK  204  A    between atoms: _483  and  _485
REMARK  205  A    between atoms: _485  and  _486
REMARK  206  A    between atoms: _485  and  _488
REMARK  207  A    between atoms: _488  and  _489
REMARK  208  A    between atoms: _489  and  _490
REMARK  209  A    between atoms: _492  and  _494
REMARK  210  A    between atoms: _494  and  _495
REMARK  211  A    between atoms: _494  and  _497
REMARK  212  A    between atoms: _497  and  _498
REMARK  213  A    between atoms: _504  and  _506
REMARK  214  A    between atoms: _506  and  _507
REMARK  215  A    between atoms: _506  and  _509
REMARK  216  A    between atoms: _509  and  _510
REMARK  217  A    between atoms: _510  and  _511
REMARK  218  A    between atoms: _514  and  _516
REMARK  219  A    between atoms: _516  and  _517
REMARK  220  A    between atoms: _516  and  _519
REMARK  221  A    between atoms: _519  and  _520
REMARK  222  A    between atoms: _523  and  _525
REMARK  223  A    between atoms: _525  and  _526
REMARK  224  A    between atoms: _525  and  _528
REMARK  225  A    between atoms: _528  and  _529
REMARK  226  A    between atoms: _532  and  _534
REMARK  227  A    between atoms: _534  and  _535
REMARK  228  A    between atoms: _534  and  _537
REMARK  229  A    between atoms: _537  and  _538
REMARK  230  A    between atoms: _544  and  _546
REMARK  231  A    between atoms: _546  and  _547
REMARK  232  A    between atoms: _546  and  _549
REMARK  233  A    between atoms: _552  and  _554
REMARK  234  A    between atoms: _554  and  _555
REMARK  235  A    between atoms: _559  and  _560
REMARK  236  A    between atoms: _565  and  _567
REMARK  237  A    between atoms: _567  and  _568
REMARK  238  A    between atoms: _567  and  _570
REMARK  239  A    between atoms: _570  and  _571
REMARK  240  A    between atoms: _574  and  _576
REMARK  241  A    between atoms: _576  and  _577
REMARK  242  A    between atoms: _576  and  _579
REMARK  243  A    between atoms: _579  and  _580
REMARK  244  A    between atoms: _587  and  _588
REMARK  245  A    between atoms: _593  and  _595
REMARK  246  A    between atoms: _595  and  _596
REMARK  247  A    between atoms: _595  and  _598
REMARK  248  A    between atoms: _601  and  _603
REMARK  249  A    between atoms: _603  and  _604
REMARK  250  A    between atoms: _607  and  _609
REMARK  251  A    between atoms: _609  and  _610
REMARK  252  A    between atoms: _609  and  _612
REMARK  253  A    between atoms: _612  and  _613
REMARK  254  A    between atoms: _618  and  _619
REMARK  255  A    between atoms: _621  and  _623
REMARK  256  A    between atoms: _623  and  _624
REMARK  257  A    between atoms: _623  and  _626
REMARK  258  A    between atoms: _626  and  _627
REMARK  259  A    between atoms: _632  and  _634
REMARK  260  A    between atoms: _634  and  _635
REMARK  261  A    between atoms: _634  and  _637
REMARK  262  A    between atoms: _637  and  _638
REMARK  263  A    between atoms: _641  and  _643
REMARK  264  A    between atoms: _643  and  _644
REMARK  265  A    between atoms: _643  and  _646
REMARK  266  A    between atoms: _646  and  _647
REMARK  267  A    between atoms: _650  and  _652
REMARK  268  A    between atoms: _652  and  _653
REMARK  269  A    between atoms: _652  and  _655
REMARK  270  A    between atoms: _655  and  _656
REMARK  271  A    between atoms: _656  and  _657
REMARK  272  A    between atoms: _657  and  _658
REMARK  273  A    between atoms: _658  and  _659
REMARK  274  A    between atoms: _663  and  _665
REMARK  275  A    between atoms: _665  and  _666
REMARK  276  A    between atoms: _665  and  _668
REMARK  277  A    between atoms: _668  and  _669
REMARK  278  A    between atoms: _675  and  _677
REMARK  279  A    between atoms: _677  and  _678
REMARK  280  A    between atoms: _677  and  _680
REMARK  281  A    between atoms: _680  and  _681
REMARK  282  A    between atoms: _684  and  _686
REMARK  283  A    between atoms: _686  and  _687
REMARK  284  A    between atoms: _686  and  _689
REMARK  285  A    between atoms: _689  and  _690
REMARK  286  A    between atoms: _692  and  _694
REMARK  287  A    between atoms: _694  and  _695
REMARK  288  A    between atoms: _694  and  _697
REMARK  289  A    between atoms: _697  and  _698
REMARK  290  A    between atoms: _701  and  _703
REMARK  291  A    between atoms: _703  and  _704
REMARK  292  A    between atoms: _703  and  _706
REMARK  293  A    between atoms: _706  and  _707
REMARK  294  A    between atoms: _707  and  _708
REMARK  295  A    between atoms: _708  and  _709
REMARK  296  A    between atoms: _718  and  _720
REMARK  297  A    between atoms: _720  and  _721
REMARK  298  A    between atoms: _720  and  _723
REMARK  299  A    between atoms: _723  and  _724
REMARK  300  A    between atoms: _724  and  _725
REMARK  301  A    between atoms: _725  and  _726
REMARK  302  A    between atoms: _726  and  _727
REMARK  303  A    between atoms: _731  and  _733
REMARK  304  A    between atoms: _733  and  _734
REMARK  305  A    between atoms: _733  and  _736
REMARK  306  A    between atoms: _736  and  _737
REMARK  307  A    between atoms: _740  and  _742
REMARK  308  A    between atoms: _742  and  _743
REMARK  309  A    between atoms: _742  and  _745
REMARK  310  A    between atoms: _745  and  _746
REMARK  311  A    between atoms: _746  and  _747
REMARK  312  A    between atoms: _749  and  _751
REMARK  313  A    between atoms: _751  and  _752
REMARK  314  A    between atoms: _751  and  _754
REMARK  315  A    between atoms: _757  and  _759
REMARK  316  A    between atoms: _759  and  _760
REMARK  317  A    between atoms: _759  and  _762
REMARK  318  A    between atoms: _762  and  _763
REMARK                            x       y       z     vdW  Elec       q    Type
REMARK                         _______ _______ _______ _____ _____    ______ ____
ROOT
ATOM      1  O   HOH     1      15.630   5.911   2.459  0.00  0.00    +0.000 OA
ENDROOT
TORSDOF 0
REMARK  Name = ../refined-set-2016/4omk/4omk_pocket.pdb
REMARK  318 active torsions:
REMARK  status: ('A' for Active; 'I' for Inactive)
REMARK    1  A    between atoms: _1  and  _3
REMARK    2  A    between atoms: _3  and  _4
REMARK    3  A    between atoms: _3  and  _6
REMARK    4  A    between atoms: _6  and  _7
REMARK    5  A    between atoms: _10  and  _12
REMARK    6  A    between atoms: _12  and  _13
REMARK    7  A    between atoms: _12  and  _15
REMARK    8  A    between atoms: _15  and  _16
REMARK    9  A    between atoms: _21  and  _22
REMARK   10  A    between atoms: _24  and  _26
REMARK   11  A    between atoms: _26  and  _27
REMARK   12  A    between atoms: _26  and  _29
REMARK   13  A    between atoms: _29  and  _30
REMARK   14  A    between atoms: _33  and  _35
REMARK   15  A    between atoms: _35  and  _36
REMARK   16  A    between atoms: _35  and  _38
REMARK   17  A    between atoms: _38  and  _39
REMARK   18  A    between atoms: _41  and  _43
REMARK   19  A    between atoms: _43  and  _44
REMARK   20  A    between atoms: _43  and  _46
REMARK   21  A    between atoms: _46  and  _47
REMARK   22  A    between atoms: _57  and  _59
REMARK   23  A    between atoms: _59  and  _60
REMARK   24  A    between atoms: _59  and  _62
REMARK   25  A    between atoms: _62  and  _63
REMARK   26  A    between atoms: _66  and  _68
REMARK   27  A    between atoms: _68  and  _69
REMARK   28  A    between atoms: _68  and  _71
REMARK   29  A    between atoms: _71  and  _72
REMARK   30  A    between atoms: _75  and  _77
REMARK   31  A    between atoms: _77  and  _78
REMARK   32  A    between atoms: _77  and  _80
REMARK   33  A    between atoms: _80  and  _81
REMARK   34  A    between atoms: _84  and  _86
REMARK   35  A    between atoms: _86  and  _87
REMARK   36  A    between atoms: _86  and  _89
REMARK   37  A    between atoms: _89  and  _90
REMARK   38  A    between atoms: _93  and  _95
REMARK   39  A    between atoms: _95  and  _96
REMARK   40  A    between atoms: _99  and  _101
REMARK   41  A    between atoms: _101  and  _102
REMARK   42  A    between atoms: _101  and  _104
REMARK   43  A    between atoms: _104  and  _105
REMARK   44  A    between atoms: _105  and  _106
REMARK   45  A    between atoms: _106  and  _107
REMARK   46  A    between atoms: _107  and  _108
REMARK   47  A    between atoms: _112  and  _114
REMARK   48  A    between atoms: _114  and  _115
REMARK   49  A    between atoms: _117  and  _119
REMARK   50  A    between atoms: _119  and  _120
REMARK   51  A    between atoms: _119  and  _122
REMARK   52  A    between atoms: _122  and  _123
REMARK   53  A    between atoms: _126  and  _128
REMARK   54  A    between atoms: _128  and  _129
REMARK   55  A    between atoms: _128  and  _131
REMARK   56  A    between atoms: _131  and  _132
REMARK   57  A    between atoms: _135  and  _137
REMARK   58  A    between atoms: _137  and  _138
REMARK   59  A    between atoms: _137  and  _140
REMARK   60  A    between atoms: _140  and  _141
REMARK   61  A    between atoms: _147  and  _149
REMARK   62  A    between atoms: _149  and  _150
REMARK   63  A    between atoms: _149  and  _152
REMARK   64  A    between atoms: _152  and  _153
REMARK   65  A    between atoms: _155  and  _157
REMARK   66  A    between atoms: _157  and  _158
REMARK   67  A    between atoms: _157  and  _160
REMARK   68  A    between atoms: _160  and  _161
REMARK   69  A    between atoms: _161  and  _162
REMARK   70  A    between atoms: _162  and  _163
REMARK   71  A    between atoms: _163  and  _164
REMARK   72  A    between atoms: _168  and  _170
REMARK   73  A    between atoms: _170  and  _171
REMARK   74  A    between atoms: _170  and  _173
REMARK   75  A    between atoms: _173  and  _174
REMARK   76  A    between atoms: _174  and  _175
REMARK   77  A    between atoms: _180  and  _182
REMARK   78  A    between atoms: _182  and  _183
REMARK   79  A    between atoms: _182  and  _185
REMARK   80  A    between atoms: _185  and  _186
REMARK   81  A    between atoms: _189  and  _191
REMARK   82  A    between atoms: _191  and  _192
REMARK   83  A    between atoms: _191  and  _194
REMARK   84  A    between atoms: _194  and  _195
REMARK   85  A    between atoms: _198  and  _200
REMARK   86  A    between atoms: _200  and  _201
REMARK   87  A    between atoms: _200  and  _203
REMARK   88  A    between atoms: _203  and  _204
REMARK   89  A    between atoms: _207  and  _209
REMARK   90  A    between atoms: _209  and  _210
REMARK   91  A    between atoms: _209  and  _212
REMARK   92  A    between atoms: _212  and  _213
REMARK   93  A    between atoms: _213  and  _214
REMARK   94  A    between atoms: _214  and  _215
REMARK   95  A    between atoms: _224  and  _226
REMARK   96  A    between atoms: _226  and  _227
REMARK   97  A    between atoms: _226  and  _229
REMARK   98  A    between atoms: _229  and  _230
REMARK   99  A    between atoms: _233  and  _235
REMARK  100  A    between atoms: _235  and  _236
REMARK  101  A    between atoms: _235  and  _238
REMARK  102  A    between atoms: _238  and  _239
REMARK  103  A    between atoms: _239  and  _240
REMARK  104  A    between atoms: _240  and  _241
REMARK  105  A    between atoms: _241  and  _242
REMARK  106  A    between atoms: _246  and  _248
REMARK  107  A    between atoms: _248  and  _249
REMARK  108  A    between atoms: _248  and  _251
REMARK  109  A    between atoms: _251  and  _252
REMARK  110  A    between atoms: _252  and  _253
REMARK  111  A    between atoms: _255  and  _257
REMARK  112  A    between atoms: _257  and  _258
REMARK  113  A    between atoms: _257  and  _260
REMARK  114  A    between atoms: _260  and  _261
REMARK  115  A    between atoms: _261  and  _262
REMARK  116  A    between atoms: _265  and  _267
REMARK  117  A    between atoms: _267  and  _268
REMARK  118  A    between atoms: _267  and  _270
REMARK  119  A    between atoms: _272  and  _274
REMARK  120  A    between atoms: _274  and  _275
REMARK  121  A    between atoms: _274  and  _277
REMARK  122  A    between atoms: _277  and  _278
REMARK  123  A    between atoms: _281  and  _283
REMARK  124  A    between atoms: _283  and  _284
REMARK  125  A    between atoms: _283  and  _286
REMARK  126  A    between atoms: _286  and  _287
REMARK  127  A    between atoms: _290  and  _292
REMARK  128  A    between atoms: _292  and  _293
REMARK  129  A    between atoms: _292  and  _295
REMARK  130  A    between atoms: _295  and  _296
REMARK  131  A    between atoms: _301  and  _302
REMARK  132  A    between atoms: _304  and  _306
REMARK  133  A    between atoms: _306  and  _307
REMARK  134  A    between atoms: _306  and  _309
REMARK  135  A    between atoms: _309  and  _310
REMARK  136  A    between atoms: _313  and  _315
REMARK  137  A    between atoms: _315  and  _316
REMARK  138  A    between atoms: _315  and  _318
REMARK  139  A    between atoms: _320  and  _322
REMARK  140  A    between atoms: _322  and  _323
REMARK  141  A    between atoms: _322  and  _325
REMARK  142  A    between atoms: _325  and  _326
REMARK  143  A    between atoms: _329  and  _331
REMARK  144  A    between atoms: _331  and  _332
REMARK  145  A    between atoms: _334  and  _336
REMARK  146  A    between atoms: _336  and  _337
REMARK  147  A    between atoms: _336  and  _339
REMARK  148  A    between atoms: _339  and  _340
REMARK  149  A    between atoms: _340  and  _341
REMARK  150  A    between atoms: _341  and  _342
REMARK  151  A    between atoms: _342  and  _343
REMARK  152  A    between atoms: _347  and  _349
REMARK  153  A    between atoms: _349  and  _350
REMARK  154  A    between atoms: _349  and  _352
REMARK  155  A    between atoms: _352  and  _353
REMARK  156  A    between atoms: _358  and  _360
REMARK  157  A    between atoms: _360  and  _361
REMARK  158  A    between atoms: _360  and  _363
REMARK  159  A    between atoms: _363  and  _364
REMARK  160  A    between atoms: _367  and  _369
REMARK  161  A    between atoms: _369  and  _370
REMARK  162  A    between atoms: _369  and  _372
REMARK  163  A    between atoms: _372  and  _373
REMARK  164  A    between atoms: _383  and  _385
REMARK  165  A    between atoms: _385  and  _386
REMARK  166  A    between atoms: _385  and  _388
REMARK  167  A    between atoms: _388  and  _389
REMARK  168  A    between atoms: _389  and  _390
REMARK  169  A    between atoms: _390  and  _391
REMARK  170  A    between atoms: _391  and  _392
REMARK  171  A    between atoms: _397  and  _398
REMARK  172  A    between atoms: _403  and  _405
REMARK  173  A    between atoms: _405  and  _406
REMARK  174  A    between atoms: _409  and  _411
REMARK  175  A    between atoms: _411  and  _412
REMARK  176  A    between atoms: _411  and  _414
REMARK  177  A    between atoms: _417  and  _419
REMARK  178  A    between atoms: _419  and  _420
REMARK  179  A    between atoms: _419  and  _422
REMARK  180  A    between atoms: _422  and  _423
REMARK  181  A    between atoms: _423  and  _424
REMARK  182  A    between atoms: _427  and  _429
REMARK  183  A    between atoms: _429  and  _430
REMARK  184  A    between atoms: _433  and  _435
REMARK  185  A    between atoms: _435  and  _436
REMARK  186  A    between atoms: _435  and  _438
REMARK  187  A    between atoms: _438  and  _439
REMARK  188  A    between atoms: _444  and  _445
REMARK  189  A    between atoms: _447  and  _449
REMARK  190  A    between atoms: _449  and  _450
REMARK  191  A    between atoms: _452  and  _454
REMARK  192  A    between atoms: _454  and  _455
REMARK  193  A    between atoms: _454  and  _457
REMARK  194  A    between atoms: _457  and  _458
REMARK  195  A    between atoms: _458  and  _459
REMARK  196  A    between atoms: _462  and  _464
REMARK  197  A    between atoms: _464  and  _465
REMARK  198  A    between atoms: _464  and  _467
REMARK  199  A    between atoms: _467  and  _468
REMARK  200  A    between atoms: _474  and  _476
REMARK  201  A    between atoms: _476  and  _477
REMARK  202  A    between atoms: _476  and  _479
REMARK  203  A    between atoms: _479  and  _480
REMARK  204  A    between atoms: _483  and  _485
REMARK  205  A    between atoms: _485  and  _486
REMARK  206  A    between atoms: _485  and  _488
REMARK  207  A    between atoms: _488  and  _489
REMARK  208  A    between atoms: _489  and  _490
REMARK  209  A    between atoms: _492  and  _494
REMARK  210  A    between atoms: _494  and  _495
REMARK  211  A    between atoms: _494  and  _497
REMARK  212  A    between atoms: _497  and  _498
REMARK  213  A    between atoms: _504  and  _506
REMARK  214  A    between atoms: _506  and  _507
REMARK  215  A    between atoms: _506  and  _509
REMARK  216  A    between atoms: _509  and  _510
REMARK  217  A    between atoms: _510  and  _511
REMARK  218  A    between atoms: _514  and  _516
REMARK  219  A    between atoms: _516  and  _517
REMARK  220  A    between atoms: _516  and  _519
REMARK  221  A    between atoms: _519  and  _520
REMARK  222  A    between atoms: _523  and  _525
REMARK  223  A    between atoms: _525  and  _526
REMARK  224  A    between atoms: _525  and  _528
REMARK  225  A    between atoms: _528  and  _529
REMARK  226  A    between atoms: _532  and  _534
REMARK  227  A    between atoms: _534  and  _535
REMARK  228  A    between atoms: _534  and  _537
REMARK  229  A    between atoms: _537  and  _538
REMARK  230  A    between atoms: _544  and  _546
REMARK  231  A    between atoms: _546  and  _547
REMARK  232  A    between atoms: _546  and  _549
REMARK  233  A    between atoms: _552  and  _554
REMARK  234  A    between atoms: _554  and  _555
REMARK  235  A    between atoms: _559  and  _560
REMARK  236  A    between atoms: _565  and  _567
REMARK  237  A    between atoms: _567  and  _568
REMARK  238  A    between atoms: _567  and  _570
REMARK  239  A    between atoms: _570  and  _571
REMARK  240  A    between atoms: _574  and  _576
REMARK  241  A    between atoms: _576  and  _577
REMARK  242  A    between atoms: _576  and  _579
REMARK  243  A    between atoms: _579  and  _580
REMARK  244  A    between atoms: _587  and  _588
REMARK  245  A    between atoms: _593  and  _595
REMARK  246  A    between atoms: _595  and  _596
REMARK  247  A    between atoms: _595  and  _598
REMARK  248  A    between atoms: _601  and  _603
REMARK  249  A    between atoms: _603  and  _604
REMARK  250  A    between atoms: _607  and  _609
REMARK  251  A    between atoms: _609  and  _610
REMARK  252  A    between atoms: _609  and  _612
REMARK  253  A    between atoms: _612  and  _613
REMARK  254  A    between atoms: _618  and  _619
REMARK  255  A    between atoms: _621  and  _623
REMARK  256  A    between atoms: _623  and  _624
REMARK  257  A    between atoms: _623  and  _626
REMARK  258  A    between atoms: _626  and  _627
REMARK  259  A    between atoms: _632  and  _634
REMARK  260  A    between atoms: _634  and  _635
REMARK  261  A    between atoms: _634  and  _637
REMARK  262  A    between atoms: _637  and  _638
REMARK  263  A    between atoms: _641  and  _643
REMARK  264  A    between atoms: _643  and  _644
REMARK  265  A    between atoms: _643  and  _646
REMARK  266  A    between atoms: _646  and  _647
REMARK  267  A    between atoms: _650  and  _652
REMARK  268  A    between atoms: _652  and  _653
REMARK  269  A    between atoms: _652  and  _655
REMARK  270  A    between atoms: _655  and  _656
REMARK  271  A    between atoms: _656  and  _657
REMARK  272  A    between atoms: _657  and  _658
REMARK  273  A    between atoms: _658  and  _659
REMARK  274  A    between atoms: _663  and  _665
REMARK  275  A    between atoms: _665  and  _666
REMARK  276  A    between atoms: _665  and  _668
REMARK  277  A    between atoms: _668  and  _669
REMARK  278  A    between atoms: _675  and  _677
REMARK  279  A    between atoms: _677  and  _678
REMARK  280  A    between atoms: _677  and  _680
REMARK  281  A    between atoms: _680  and  _681
REMARK  282  A    between atoms: _684  and  _686
REMARK  283  A    between atoms: _686  and  _687
REMARK  284  A    between atoms: _686  and  _689
REMARK  285  A    between atoms: _689  and  _690
REMARK  286  A    between atoms: _692  and  _694
REMARK  287  A    between atoms: _694  and  _695
REMARK  288  A    between atoms: _694  and  _697
REMARK  289  A    between atoms: _697  and  _698
REMARK  290  A    between atoms: _701  and  _703
REMARK  291  A    between atoms: _703  and  _704
REMARK  292  A    between atoms: _703  and  _706
REMARK  293  A    between atoms: _706  and  _707
REMARK  294  A    between atoms: _707  and  _708
REMARK  295  A    between atoms: _708  and  _709
REMARK  296  A    between atoms: _718  and  _720
REMARK  297  A    between atoms: _720  and  _721
REMARK  298  A    between atoms: _720  and  _723
REMARK  299  A    between atoms: _723  and  _724
REMARK  300  A    between atoms: _724  and  _725
REMARK  301  A    between atoms: _725  and  _726
REMARK  302  A    between atoms: _726  and  _727
REMARK  303  A    between atoms: _731  and  _733
REMARK  304  A    between atoms: _733  and  _734
REMARK  305  A    between atoms: _733  and  _736
REMARK  306  A    between atoms: _736  and  _737
REMARK  307  A    between atoms: _740  and  _742
REMARK  308  A    between atoms: _742  and  _743
REMARK  309  A    between atoms: _742  and  _745
REMARK  310  A    between atoms: _745  and  _746
REMARK  311  A    between atoms: _746  and  _747
REMARK  312  A    between atoms: _749  and  _751
REMARK  313  A    between atoms: _751  and  _752
REMARK  314  A    between atoms: _751  and  _754
REMARK  315  A    between atoms: _757  and  _759
REMARK  316  A    between atoms: _759  and  _760
REMARK  317  A    between atoms: _759  and  _762
REMARK  318  A    between atoms: _762  and  _763
REMARK                            x       y       z     vdW  Elec       q    Type
REMARK                         _______ _______ _______ _____ _____    ______ ____
ROOT
ATOM      1  O   HOH     1      14.763   7.892   1.575  0.00  0.00    +0.000 OA
ENDROOT
TORSDOF 0
REMARK  Name = ../refined-set-2016/4omk/4omk_pocket.pdb
REMARK  318 active torsions:
REMARK  status: ('A' for Active; 'I' for Inactive)
REMARK    1  A    between atoms: _1  and  _3
REMARK    2  A    between atoms: _3  and  _4
REMARK    3  A    between atoms: _3  and  _6
REMARK    4  A    between atoms: _6  and  _7
REMARK    5  A    between atoms: _10  and  _12
REMARK    6  A    between atoms: _12  and  _13
REMARK    7  A    between atoms: _12  and  _15
REMARK    8  A    between atoms: _15  and  _16
REMARK    9  A    between atoms: _21  and  _22
REMARK   10  A    between atoms: _24  and  _26
REMARK   11  A    between atoms: _26  and  _27
REMARK   12  A    between atoms: _26  and  _29
REMARK   13  A    between atoms: _29  and  _30
REMARK   14  A    between atoms: _33  and  _35
REMARK   15  A    between atoms: _35  and  _36
REMARK   16  A    between atoms: _35  and  _38
REMARK   17  A    between atoms: _38  and  _39
REMARK   18  A    between atoms: _41  and  _43
REMARK   19  A    between atoms: _43  and  _44
REMARK   20  A    between atoms: _43  and  _46
REMARK   21  A    between atoms: _46  and  _47
REMARK   22  A    between atoms: _57  and  _59
REMARK   23  A    between atoms: _59  and  _60
REMARK   24  A    between atoms: _59  and  _62
REMARK   25  A    between atoms: _62  and  _63
REMARK   26  A    between atoms: _66  and  _68
REMARK   27  A    between atoms: _68  and  _69
REMARK   28  A    between atoms: _68  and  _71
REMARK   29  A    between atoms: _71  and  _72
REMARK   30  A    between atoms: _75  and  _77
REMARK   31  A    between atoms: _77  and  _78
REMARK   32  A    between atoms: _77  and  _80
REMARK   33  A    between atoms: _80  and  _81
REMARK   34  A    between atoms: _84  and  _86
REMARK   35  A    between atoms: _86  and  _87
REMARK   36  A    between atoms: _86  and  _89
REMARK   37  A    between atoms: _89  and  _90
REMARK   38  A    between atoms: _93  and  _95
REMARK   39  A    between atoms: _95  and  _96
REMARK   40  A    between atoms: _99  and  _101
REMARK   41  A    between atoms: _101  and  _102
REMARK   42  A    between atoms: _101  and  _104
REMARK   43  A    between atoms: _104  and  _105
REMARK   44  A    between atoms: _105  and  _106
REMARK   45  A    between atoms: _106  and  _107
REMARK   46  A    between atoms: _107  and  _108
REMARK   47  A    between atoms: _112  and  _114
REMARK   48  A    between atoms: _114  and  _115
REMARK   49  A    between atoms: _117  and  _119
REMARK   50  A    between atoms: _119  and  _120
REMARK   51  A    between atoms: _119  and  _122
REMARK   52  A    between atoms: _122  and  _123
REMARK   53  A    between atoms: _126  and  _128
REMARK   54  A    between atoms: _128  and  _129
REMARK   55  A    between atoms: _128  and  _131
REMARK   56  A    between atoms: _131  and  _132
REMARK   57  A    between atoms: _135  and  _137
REMARK   58  A    between atoms: _137  and  _138
REMARK   59  A    between atoms: _137  and  _140
REMARK   60  A    between atoms: _140  and  _141
REMARK   61  A    between atoms: _147  and  _149
REMARK   62  A    between atoms: _149  and  _150
REMARK   63  A    between atoms: _149  and  _152
REMARK   64  A    between atoms: _152  and  _153
REMARK   65  A    between atoms: _155  and  _157
REMARK   66  A    between atoms: _157  and  _158
REMARK   67  A    between atoms: _157  and  _160
REMARK   68  A    between atoms: _160  and  _161
REMARK   69  A    between atoms: _161  and  _162
REMARK   70  A    between atoms: _162  and  _163
REMARK   71  A    between atoms: _163  and  _164
REMARK   72  A    between atoms: _168  and  _170
REMARK   73  A    between atoms: _170  and  _171
REMARK   74  A    between atoms: _170  and  _173
REMARK   75  A    between atoms: _173  and  _174
REMARK   76  A    between atoms: _174  and  _175
REMARK   77  A    between atoms: _180  and  _182
REMARK   78  A    between atoms: _182  and  _183
REMARK   79  A    between atoms: _182  and  _185
REMARK   80  A    between atoms: _185  and  _186
REMARK   81  A    between atoms: _189  and  _191
REMARK   82  A    between atoms: _191  and  _192
REMARK   83  A    between atoms: _191  and  _194
REMARK   84  A    between atoms: _194  and  _195
REMARK   85  A    between atoms: _198  and  _200
REMARK   86  A    between atoms: _200  and  _201
REMARK   87  A    between atoms: _200  and  _203
REMARK   88  A    between atoms: _203  and  _204
REMARK   89  A    between atoms: _207  and  _209
REMARK   90  A    between atoms: _209  and  _210
REMARK   91  A    between atoms: _209  and  _212
REMARK   92  A    between atoms: _212  and  _213
REMARK   93  A    between atoms: _213  and  _214
REMARK   94  A    between atoms: _214  and  _215
REMARK   95  A    between atoms: _224  and  _226
REMARK   96  A    between atoms: _226  and  _227
REMARK   97  A    between atoms: _226  and  _229
REMARK   98  A    between atoms: _229  and  _230
REMARK   99  A    between atoms: _233  and  _235
REMARK  100  A    between atoms: _235  and  _236
REMARK  101  A    between atoms: _235  and  _238
REMARK  102  A    between atoms: _238  and  _239
REMARK  103  A    between atoms: _239  and  _240
REMARK  104  A    between atoms: _240  and  _241
REMARK  105  A    between atoms: _241  and  _242
REMARK  106  A    between atoms: _246  and  _248
REMARK  107  A    between atoms: _248  and  _249
REMARK  108  A    between atoms: _248  and  _251
REMARK  109  A    between atoms: _251  and  _252
REMARK  110  A    between atoms: _252  and  _253
REMARK  111  A    between atoms: _255  and  _257
REMARK  112  A    between atoms: _257  and  _258
REMARK  113  A    between atoms: _257  and  _260
REMARK  114  A    between atoms: _260  and  _261
REMARK  115  A    between atoms: _261  and  _262
REMARK  116  A    between atoms: _265  and  _267
REMARK  117  A    between atoms: _267  and  _268
REMARK  118  A    between atoms: _267  and  _270
REMARK  119  A    between atoms: _272  and  _274
REMARK  120  A    between atoms: _274  and  _275
REMARK  121  A    between atoms: _274  and  _277
REMARK  122  A    between atoms: _277  and  _278
REMARK  123  A    between atoms: _281  and  _283
REMARK  124  A    between atoms: _283  and  _284
REMARK  125  A    between atoms: _283  and  _286
REMARK  126  A    between atoms: _286  and  _287
REMARK  127  A    between atoms: _290  and  _292
REMARK  128  A    between atoms: _292  and  _293
REMARK  129  A    between atoms: _292  and  _295
REMARK  130  A    between atoms: _295  and  _296
REMARK  131  A    between atoms: _301  and  _302
REMARK  132  A    between atoms: _304  and  _306
REMARK  133  A    between atoms: _306  and  _307
REMARK  134  A    between atoms: _306  and  _309
REMARK  135  A    between atoms: _309  and  _310
REMARK  136  A    between atoms: _313  and  _315
REMARK  137  A    between atoms: _315  and  _316
REMARK  138  A    between atoms: _315  and  _318
REMARK  139  A    between atoms: _320  and  _322
REMARK  140  A    between atoms: _322  and  _323
REMARK  141  A    between atoms: _322  and  _325
REMARK  142  A    between atoms: _325  and  _326
REMARK  143  A    between atoms: _329  and  _331
REMARK  144  A    between atoms: _331  and  _332
REMARK  145  A    between atoms: _334  and  _336
REMARK  146  A    between atoms: _336  and  _337
REMARK  147  A    between atoms: _336  and  _339
REMARK  148  A    between atoms: _339  and  _340
REMARK  149  A    between atoms: _340  and  _341
REMARK  150  A    between atoms: _341  and  _342
REMARK  151  A    between atoms: _342  and  _343
REMARK  152  A    between atoms: _347  and  _349
REMARK  153  A    between atoms: _349  and  _350
REMARK  154  A    between atoms: _349  and  _352
REMARK  155  A    between atoms: _352  and  _353
REMARK  156  A    between atoms: _358  and  _360
REMARK  157  A    between atoms: _360  and  _361
REMARK  158  A    between atoms: _360  and  _363
REMARK  159  A    between atoms: _363  and  _364
REMARK  160  A    between atoms: _367  and  _369
REMARK  161  A    between atoms: _369  and  _370
REMARK  162  A    between atoms: _369  and  _372
REMARK  163  A    between atoms: _372  and  _373
REMARK  164  A    between atoms: _383  and  _385
REMARK  165  A    between atoms: _385  and  _386
REMARK  166  A    between atoms: _385  and  _388
REMARK  167  A    between atoms: _388  and  _389
REMARK  168  A    between atoms: _389  and  _390
REMARK  169  A    between atoms: _390  and  _391
REMARK  170  A    between atoms: _391  and  _392
REMARK  171  A    between atoms: _397  and  _398
REMARK  172  A    between atoms: _403  and  _405
REMARK  173  A    between atoms: _405  and  _406
REMARK  174  A    between atoms: _409  and  _411
REMARK  175  A    between atoms: _411  and  _412
REMARK  176  A    between atoms: _411  and  _414
REMARK  177  A    between atoms: _417  and  _419
REMARK  178  A    between atoms: _419  and  _420
REMARK  179  A    between atoms: _419  and  _422
REMARK  180  A    between atoms: _422  and  _423
REMARK  181  A    between atoms: _423  and  _424
REMARK  182  A    between atoms: _427  and  _429
REMARK  183  A    between atoms: _429  and  _430
REMARK  184  A    between atoms: _433  and  _435
REMARK  185  A    between atoms: _435  and  _436
REMARK  186  A    between atoms: _435  and  _438
REMARK  187  A    between atoms: _438  and  _439
REMARK  188  A    between atoms: _444  and  _445
REMARK  189  A    between atoms: _447  and  _449
REMARK  190  A    between atoms: _449  and  _450
REMARK  191  A    between atoms: _452  and  _454
REMARK  192  A    between atoms: _454  and  _455
REMARK  193  A    between atoms: _454  and  _457
REMARK  194  A    between atoms: _457  and  _458
REMARK  195  A    between atoms: _458  and  _459
REMARK  196  A    between atoms: _462  and  _464
REMARK  197  A    between atoms: _464  and  _465
REMARK  198  A    between atoms: _464  and  _467
REMARK  199  A    between atoms: _467  and  _468
REMARK  200  A    between atoms: _474  and  _476
REMARK  201  A    between atoms: _476  and  _477
REMARK  202  A    between atoms: _476  and  _479
REMARK  203  A    between atoms: _479  and  _480
REMARK  204  A    between atoms: _483  and  _485
REMARK  205  A    between atoms: _485  and  _486
REMARK  206  A    between atoms: _485  and  _488
REMARK  207  A    between atoms: _488  and  _489
REMARK  208  A    between atoms: _489  and  _490
REMARK  209  A    between atoms: _492  and  _494
REMARK  210  A    between atoms: _494  and  _495
REMARK  211  A    between atoms: _494  and  _497
REMARK  212  A    between atoms: _497  and  _498
REMARK  213  A    between atoms: _504  and  _506
REMARK  214  A    between atoms: _506  and  _507
REMARK  215  A    between atoms: _506  and  _509
REMARK  216  A    between atoms: _509  and  _510
REMARK  217  A    between atoms: _510  and  _511
REMARK  218  A    between atoms: _514  and  _516
REMARK  219  A    between atoms: _516  and  _517
REMARK  220  A    between atoms: _516  and  _519
REMARK  221  A    between atoms: _519  and  _520
REMARK  222  A    between atoms: _523  and  _525
REMARK  223  A    between atoms: _525  and  _526
REMARK  224  A    between atoms: _525  and  _528
REMARK  225  A    between atoms: _528  and  _529
REMARK  226  A    between atoms: _532  and  _534
REMARK  227  A    between atoms: _534  and  _535
REMARK  228  A    between atoms: _534  and  _537
REMARK  229  A    between atoms: _537  and  _538
REMARK  230  A    between atoms: _544  and  _546
REMARK  231  A    between atoms: _546  and  _547
REMARK  232  A    between atoms: _546  and  _549
REMARK  233  A    between atoms: _552  and  _554
REMARK  234  A    between atoms: _554  and  _555
REMARK  235  A    between atoms: _559  and  _560
REMARK  236  A    between atoms: _565  and  _567
REMARK  237  A    between atoms: _567  and  _568
REMARK  238  A    between atoms: _567  and  _570
REMARK  239  A    between atoms: _570  and  _571
REMARK  240  A    between atoms: _574  and  _576
REMARK  241  A    between atoms: _576  and  _577
REMARK  242  A    between atoms: _576  and  _579
REMARK  243  A    between atoms: _579  and  _580
REMARK  244  A    between atoms: _587  and  _588
REMARK  245  A    between atoms: _593  and  _595
REMARK  246  A    between atoms: _595  and  _596
REMARK  247  A    between atoms: _595  and  _598
REMARK  248  A    between atoms: _601  and  _603
REMARK  249  A    between atoms: _603  and  _604
REMARK  250  A    between atoms: _607  and  _609
REMARK  251  A    between atoms: _609  and  _610
REMARK  252  A    between atoms: _609  and  _612
REMARK  253  A    between atoms: _612  and  _613
REMARK  254  A    between atoms: _618  and  _619
REMARK  255  A    between atoms: _621  and  _623
REMARK  256  A    between atoms: _623  and  _624
REMARK  257  A    between atoms: _623  and  _626
REMARK  258  A    between atoms: _626  and  _627
REMARK  259  A    between atoms: _632  and  _634
REMARK  260  A    between atoms: _634  and  _635
REMARK  261  A    between atoms: _634  and  _637
REMARK  262  A    between atoms: _637  and  _638
REMARK  263  A    between atoms: _641  and  _643
REMARK  264  A    between atoms: _643  and  _644
REMARK  265  A    between atoms: _643  and  _646
REMARK  266  A    between atoms: _646  and  _647
REMARK  267  A    between atoms: _650  and  _652
REMARK  268  A    between atoms: _652  and  _653
REMARK  269  A    between atoms: _652  and  _655
REMARK  270  A    between atoms: _655  and  _656
REMARK  271  A    between atoms: _656  and  _657
REMARK  272  A    between atoms: _657  and  _658
REMARK  273  A    between atoms: _658  and  _659
REMARK  274  A    between atoms: _663  and  _665
REMARK  275  A    between atoms: _665  and  _666
REMARK  276  A    between atoms: _665  and  _668
REMARK  277  A    between atoms: _668  and  _669
REMARK  278  A    between atoms: _675  and  _677
REMARK  279  A    between atoms: _677  and  _678
REMARK  280  A    between atoms: _677  and  _680
REMARK  281  A    between atoms: _680  and  _681
REMARK  282  A    between atoms: _684  and  _686
REMARK  283  A    between atoms: _686  and  _687
REMARK  284  A    between atoms: _686  and  _689
REMARK  285  A    between atoms: _689  and  _690
REMARK  286  A    between atoms: _692  and  _694
REMARK  287  A    between atoms: _694  and  _695
REMARK  288  A    between atoms: _694  and  _697
REMARK  289  A    between atoms: _697  and  _698
REMARK  290  A    between atoms: _701  and  _703
REMARK  291  A    between atoms: _703  and  _704
REMARK  292  A    between atoms: _703  and  _706
REMARK  293  A    between atoms: _706  and  _707
REMARK  294  A    between atoms: _707  and  _708
REMARK  295  A    between atoms: _708  and  _709
REMARK  296  A    between atoms: _718  and  _720
REMARK  297  A    between atoms: _720  and  _721
REMARK  298  A    between atoms: _720  and  _723
REMARK  299  A    between atoms: _723  and  _724
REMARK  300  A    between atoms: _724  and  _725
REMARK  301  A    between atoms: _725  and  _726
REMARK  302  A    between atoms: _726  and  _727
REMARK  303  A    between atoms: _731  and  _733
REMARK  304  A    between atoms: _733  and  _734
REMARK  305  A    between atoms: _733  and  _736
REMARK  306  A    between atoms: _736  and  _737
REMARK  307  A    between atoms: _740  and  _742
REMARK  308  A    between atoms: _742  and  _743
REMARK  309  A    between atoms: _742  and  _745
REMARK  310  A    between atoms: _745  and  _746
REMARK  311  A    between atoms: _746  and  _747
REMARK  312  A    between atoms: _749  and  _751
REMARK  313  A    between atoms: _751  and  _752
REMARK  314  A    between atoms: _751  and  _754
REMARK  315  A    between atoms: _757  and  _759
REMARK  316  A    between atoms: _759  and  _760
REMARK  317  A    between atoms: _759  and  _762
REMARK  318  A    between atoms: _762  and  _763
REMARK                            x       y       z     vdW  Elec       q    Type
REMARK                         _______ _______ _______ _____ _____    ______ ____
ROOT
ATOM      1  O   HOH     1      13.621   6.653  -1.095  0.00  0.00    +0.000 OA
ENDROOT
TORSDOF 0
REMARK  Name = ../refined-set-2016/4omk/4omk_pocket.pdb
REMARK  318 active torsions:
REMARK  status: ('A' for Active; 'I' for Inactive)
REMARK    1  A    between atoms: _1  and  _3
REMARK    2  A    between atoms: _3  and  _4
REMARK    3  A    between atoms: _3  and  _6
REMARK    4  A    between atoms: _6  and  _7
REMARK    5  A    between atoms: _10  and  _12
REMARK    6  A    between atoms: _12  and  _13
REMARK    7  A    between atoms: _12  and  _15
REMARK    8  A    between atoms: _15  and  _16
REMARK    9  A    between atoms: _21  and  _22
REMARK   10  A    between atoms: _24  and  _26
REMARK   11  A    between atoms: _26  and  _27
REMARK   12  A    between atoms: _26  and  _29
REMARK   13  A    between atoms: _29  and  _30
REMARK   14  A    between atoms: _33  and  _35
REMARK   15  A    between atoms: _35  and  _36
REMARK   16  A    between atoms: _35  and  _38
REMARK   17  A    between atoms: _38  and  _39
REMARK   18  A    between atoms: _41  and  _43
REMARK   19  A    between atoms: _43  and  _44
REMARK   20  A    between atoms: _43  and  _46
REMARK   21  A    between atoms: _46  and  _47
REMARK   22  A    between atoms: _57  and  _59
REMARK   23  A    between atoms: _59  and  _60
REMARK   24  A    between atoms: _59  and  _62
REMARK   25  A    between atoms: _62  and  _63
REMARK   26  A    between atoms: _66  and  _68
REMARK   27  A    between atoms: _68  and  _69
REMARK   28  A    between atoms: _68  and  _71
REMARK   29  A    between atoms: _71  and  _72
REMARK   30  A    between atoms: _75  and  _77
REMARK   31  A    between atoms: _77  and  _78
REMARK   32  A    between atoms: _77  and  _80
REMARK   33  A    between atoms: _80  and  _81
REMARK   34  A    between atoms: _84  and  _86
REMARK   35  A    between atoms: _86  and  _87
REMARK   36  A    between atoms: _86  and  _89
REMARK   37  A    between atoms: _89  and  _90
REMARK   38  A    between atoms: _93  and  _95
REMARK   39  A    between atoms: _95  and  _96
REMARK   40  A    between atoms: _99  and  _101
REMARK   41  A    between atoms: _101  and  _102
REMARK   42  A    between atoms: _101  and  _104
REMARK   43  A    between atoms: _104  and  _105
REMARK   44  A    between atoms: _105  and  _106
REMARK   45  A    between atoms: _106  and  _107
REMARK   46  A    between atoms: _107  and  _108
REMARK   47  A    between atoms: _112  and  _114
REMARK   48  A    between atoms: _114  and  _115
REMARK   49  A    between atoms: _117  and  _119
REMARK   50  A    between atoms: _119  and  _120
REMARK   51  A    between atoms: _119  and  _122
REMARK   52  A    between atoms: _122  and  _123
REMARK   53  A    between atoms: _126  and  _128
REMARK   54  A    between atoms: _128  and  _129
REMARK   55  A    between atoms: _128  and  _131
REMARK   56  A    between atoms: _131  and  _132
REMARK   57  A    between atoms: _135  and  _137
REMARK   58  A    between atoms: _137  and  _138
REMARK   59  A    between atoms: _137  and  _140
REMARK   60  A    between atoms: _140  and  _141
REMARK   61  A    between atoms: _147  and  _149
REMARK   62  A    between atoms: _149  and  _150
REMARK   63  A    between atoms: _149  and  _152
REMARK   64  A    between atoms: _152  and  _153
REMARK   65  A    between atoms: _155  and  _157
REMARK   66  A    between atoms: _157  and  _158
REMARK   67  A    between atoms: _157  and  _160
REMARK   68  A    between atoms: _160  and  _161
REMARK   69  A    between atoms: _161  and  _162
REMARK   70  A    between atoms: _162  and  _163
REMARK   71  A    between atoms: _163  and  _164
REMARK   72  A    between atoms: _168  and  _170
REMARK   73  A    between atoms: _170  and  _171
REMARK   74  A    between atoms: _170  and  _173
REMARK   75  A    between atoms: _173  and  _174
REMARK   76  A    between atoms: _174  and  _175
REMARK   77  A    between atoms: _180  and  _182
REMARK   78  A    between atoms: _182  and  _183
REMARK   79  A    between atoms: _182  and  _185
REMARK   80  A    between atoms: _185  and  _186
REMARK   81  A    between atoms: _189  and  _191
REMARK   82  A    between atoms: _191  and  _192
REMARK   83  A    between atoms: _191  and  _194
REMARK   84  A    between atoms: _194  and  _195
REMARK   85  A    between atoms: _198  and  _200
REMARK   86  A    between atoms: _200  and  _201
REMARK   87  A    between atoms: _200  and  _203
REMARK   88  A    between atoms: _203  and  _204
REMARK   89  A    between atoms: _207  and  _209
REMARK   90  A    between atoms: _209  and  _210
REMARK   91  A    between atoms: _209  and  _212
REMARK   92  A    between atoms: _212  and  _213
REMARK   93  A    between atoms: _213  and  _214
REMARK   94  A    between atoms: _214  and  _215
REMARK   95  A    between atoms: _224  and  _226
REMARK   96  A    between atoms: _226  and  _227
REMARK   97  A    between atoms: _226  and  _229
REMARK   98  A    between atoms: _229  and  _230
REMARK   99  A    between atoms: _233  and  _235
REMARK  100  A    between atoms: _235  and  _236
REMARK  101  A    between atoms: _235  and  _238
REMARK  102  A    between atoms: _238  and  _239
REMARK  103  A    between atoms: _239  and  _240
REMARK  104  A    between atoms: _240  and  _241
REMARK  105  A    between atoms: _241  and  _242
REMARK  106  A    between atoms: _246  and  _248
REMARK  107  A    between atoms: _248  and  _249
REMARK  108  A    between atoms: _248  and  _251
REMARK  109  A    between atoms: _251  and  _252
REMARK  110  A    between atoms: _252  and  _253
REMARK  111  A    between atoms: _255  and  _257
REMARK  112  A    between atoms: _257  and  _258
REMARK  113  A    between atoms: _257  and  _260
REMARK  114  A    between atoms: _260  and  _261
REMARK  115  A    between atoms: _261  and  _262
REMARK  116  A    between atoms: _265  and  _267
REMARK  117  A    between atoms: _267  and  _268
REMARK  118  A    between atoms: _267  and  _270
REMARK  119  A    between atoms: _272  and  _274
REMARK  120  A    between atoms: _274  and  _275
REMARK  121  A    between atoms: _274  and  _277
REMARK  122  A    between atoms: _277  and  _278
REMARK  123  A    between atoms: _281  and  _283
REMARK  124  A    between atoms: _283  and  _284
REMARK  125  A    between atoms: _283  and  _286
REMARK  126  A    between atoms: _286  and  _287
REMARK  127  A    between atoms: _290  and  _292
REMARK  128  A    between atoms: _292  and  _293
REMARK  129  A    between atoms: _292  and  _295
REMARK  130  A    between atoms: _295  and  _296
REMARK  131  A    between atoms: _301  and  _302
REMARK  132  A    between atoms: _304  and  _306
REMARK  133  A    between atoms: _306  and  _307
REMARK  134  A    between atoms: _306  and  _309
REMARK  135  A    between atoms: _309  and  _310
REMARK  136  A    between atoms: _313  and  _315
REMARK  137  A    between atoms: _315  and  _316
REMARK  138  A    between atoms: _315  and  _318
REMARK  139  A    between atoms: _320  and  _322
REMARK  140  A    between atoms: _322  and  _323
REMARK  141  A    between atoms: _322  and  _325
REMARK  142  A    between atoms: _325  and  _326
REMARK  143  A    between atoms: _329  and  _331
REMARK  144  A    between atoms: _331  and  _332
REMARK  145  A    between atoms: _334  and  _336
REMARK  146  A    between atoms: _336  and  _337
REMARK  147  A    between atoms: _336  and  _339
REMARK  148  A    between atoms: _339  and  _340
REMARK  149  A    between atoms: _340  and  _341
REMARK  150  A    between atoms: _341  and  _342
REMARK  151  A    between atoms: _342  and  _343
REMARK  152  A    between atoms: _347  and  _349
REMARK  153  A    between atoms: _349  and  _350
REMARK  154  A    between atoms: _349  and  _352
REMARK  155  A    between atoms: _352  and  _353
REMARK  156  A    between atoms: _358  and  _360
REMARK  157  A    between atoms: _360  and  _361
REMARK  158  A    between atoms: _360  and  _363
REMARK  159  A    between atoms: _363  and  _364
REMARK  160  A    between atoms: _367  and  _369
REMARK  161  A    between atoms: _369  and  _370
REMARK  162  A    between atoms: _369  and  _372
REMARK  163  A    between atoms: _372  and  _373
REMARK  164  A    between atoms: _383  and  _385
REMARK  165  A    between atoms: _385  and  _386
REMARK  166  A    between atoms: _385  and  _388
REMARK  167  A    between atoms: _388  and  _389
REMARK  168  A    between atoms: _389  and  _390
REMARK  169  A    between atoms: _390  and  _391
REMARK  170  A    between atoms: _391  and  _392
REMARK  171  A    between atoms: _397  and  _398
REMARK  172  A    between atoms: _403  and  _405
REMARK  173  A    between atoms: _405  and  _406
REMARK  174  A    between atoms: _409  and  _411
REMARK  175  A    between atoms: _411  and  _412
REMARK  176  A    between atoms: _411  and  _414
REMARK  177  A    between atoms: _417  and  _419
REMARK  178  A    between atoms: _419  and  _420
REMARK  179  A    between atoms: _419  and  _422
REMARK  180  A    between atoms: _422  and  _423
REMARK  181  A    between atoms: _423  and  _424
REMARK  182  A    between atoms: _427  and  _429
REMARK  183  A    between atoms: _429  and  _430
REMARK  184  A    between atoms: _433  and  _435
REMARK  185  A    between atoms: _435  and  _436
REMARK  186  A    between atoms: _435  and  _438
REMARK  187  A    between atoms: _438  and  _439
REMARK  188  A    between atoms: _444  and  _445
REMARK  189  A    between atoms: _447  and  _449
REMARK  190  A    between atoms: _449  and  _450
REMARK  191  A    between atoms: _452  and  _454
REMARK  192  A    between atoms: _454  and  _455
REMARK  193  A    between atoms: _454  and  _457
REMARK  194  A    between atoms: _457  and  _458
REMARK  195  A    between atoms: _458  and  _459
REMARK  196  A    between atoms: _462  and  _464
REMARK  197  A    between atoms: _464  and  _465
REMARK  198  A    between atoms: _464  and  _467
REMARK  199  A    between atoms: _467  and  _468
REMARK  200  A    between atoms: _474  and  _476
REMARK  201  A    between atoms: _476  and  _477
REMARK  202  A    between atoms: _476  and  _479
REMARK  203  A    between atoms: _479  and  _480
REMARK  204  A    between atoms: _483  and  _485
REMARK  205  A    between atoms: _485  and  _486
REMARK  206  A    between atoms: _485  and  _488
REMARK  207  A    between atoms: _488  and  _489
REMARK  208  A    between atoms: _489  and  _490
REMARK  209  A    between atoms: _492  and  _494
REMARK  210  A    between atoms: _494  and  _495
REMARK  211  A    between atoms: _494  and  _497
REMARK  212  A    between atoms: _497  and  _498
REMARK  213  A    between atoms: _504  and  _506
REMARK  214  A    between atoms: _506  and  _507
REMARK  215  A    between atoms: _506  and  _509
REMARK  216  A    between atoms: _509  and  _510
REMARK  217  A    between atoms: _510  and  _511
REMARK  218  A    between atoms: _514  and  _516
REMARK  219  A    between atoms: _516  and  _517
REMARK  220  A    between atoms: _516  and  _519
REMARK  221  A    between atoms: _519  and  _520
REMARK  222  A    between atoms: _523  and  _525
REMARK  223  A    between atoms: _525  and  _526
REMARK  224  A    between atoms: _525  and  _528
REMARK  225  A    between atoms: _528  and  _529
REMARK  226  A    between atoms: _532  and  _534
REMARK  227  A    between atoms: _534  and  _535
REMARK  228  A    between atoms: _534  and  _537
REMARK  229  A    between atoms: _537  and  _538
REMARK  230  A    between atoms: _544  and  _546
REMARK  231  A    between atoms: _546  and  _547
REMARK  232  A    between atoms: _546  and  _549
REMARK  233  A    between atoms: _552  and  _554
REMARK  234  A    between atoms: _554  and  _555
REMARK  235  A    between atoms: _559  and  _560
REMARK  236  A    between atoms: _565  and  _567
REMARK  237  A    between atoms: _567  and  _568
REMARK  238  A    between atoms: _567  and  _570
REMARK  239  A    between atoms: _570  and  _571
REMARK  240  A    between atoms: _574  and  _576
REMARK  241  A    between atoms: _576  and  _577
REMARK  242  A    between atoms: _576  and  _579
REMARK  243  A    between atoms: _579  and  _580
REMARK  244  A    between atoms: _587  and  _588
REMARK  245  A    between atoms: _593  and  _595
REMARK  246  A    between atoms: _595  and  _596
REMARK  247  A    between atoms: _595  and  _598
REMARK  248  A    between atoms: _601  and  _603
REMARK  249  A    between atoms: _603  and  _604
REMARK  250  A    between atoms: _607  and  _609
REMARK  251  A    between atoms: _609  and  _610
REMARK  252  A    between atoms: _609  and  _612
REMARK  253  A    between atoms: _612  and  _613
REMARK  254  A    between atoms: _618  and  _619
REMARK  255  A    between atoms: _621  and  _623
REMARK  256  A    between atoms: _623  and  _624
REMARK  257  A    between atoms: _623  and  _626
REMARK  258  A    between atoms: _626  and  _627
REMARK  259  A    between atoms: _632  and  _634
REMARK  260  A    between atoms: _634  and  _635
REMARK  261  A    between atoms: _634  and  _637
REMARK  262  A    between atoms: _637  and  _638
REMARK  263  A    between atoms: _641  and  _643
REMARK  264  A    between atoms: _643  and  _644
REMARK  265  A    between atoms: _643  and  _646
REMARK  266  A    between atoms: _646  and  _647
REMARK  267  A    between atoms: _650  and  _652
REMARK  268  A    between atoms: _652  and  _653
REMARK  269  A    between atoms: _652  and  _655
REMARK  270  A    between atoms: _655  and  _656
REMARK  271  A    between atoms: _656  and  _657
REMARK  272  A    between atoms: _657  and  _658
REMARK  273  A    between atoms: _658  and  _659
REMARK  274  A    between atoms: _663  and  _665
REMARK  275  A    between atoms: _665  and  _666
REMARK  276  A    between atoms: _665  and  _668
REMARK  277  A    between atoms: _668  and  _669
REMARK  278  A    between atoms: _675  and  _677
REMARK  279  A    between atoms: _677  and  _678
REMARK  280  A    between atoms: _677  and  _680
REMARK  281  A    between atoms: _680  and  _681
REMARK  282  A    between atoms: _684  and  _686
REMARK  283  A    between atoms: _686  and  _687
REMARK  284  A    between atoms: _686  and  _689
REMARK  285  A    between atoms: _689  and  _690
REMARK  286  A    between atoms: _692  and  _694
REMARK  287  A    between atoms: _694  and  _695
REMARK  288  A    between atoms: _694  and  _697
REMARK  289  A    between atoms: _697  and  _698
REMARK  290  A    between atoms: _701  and  _703
REMARK  291  A    between atoms: _703  and  _704
REMARK  292  A    between atoms: _703  and  _706
REMARK  293  A    between atoms: _706  and  _707
REMARK  294  A    between atoms: _707  and  _708
REMARK  295  A    between atoms: _708  and  _709
REMARK  296  A    between atoms: _718  and  _720
REMARK  297  A    between atoms: _720  and  _721
REMARK  298  A    between atoms: _720  and  _723
REMARK  299  A    between atoms: _723  and  _724
REMARK  300  A    between atoms: _724  and  _725
REMARK  301  A    between atoms: _725  and  _726
REMARK  302  A    between atoms: _726  and  _727
REMARK  303  A    between atoms: _731  and  _733
REMARK  304  A    between atoms: _733  and  _734
REMARK  305  A    between atoms: _733  and  _736
REMARK  306  A    between atoms: _736  and  _737
REMARK  307  A    between atoms: _740  and  _742
REMARK  308  A    between atoms: _742  and  _743
REMARK  309  A    between atoms: _742  and  _745
REMARK  310  A    between atoms: _745  and  _746
REMARK  311  A    between atoms: _746  and  _747
REMARK  312  A    between atoms: _749  and  _751
REMARK  313  A    between atoms: _751  and  _752
REMARK  314  A    between atoms: _751  and  _754
REMARK  315  A    between atoms: _757  and  _759
REMARK  316  A    between atoms: _759  and  _760
REMARK  317  A    between atoms: _759  and  _762
REMARK  318  A    between atoms: _762  and  _763
REMARK                            x       y       z     vdW  Elec       q    Type
REMARK                         _______ _______ _______ _____ _____    ______ ____
ROOT
ATOM      1  O   HOH     1      11.242  20.678   4.597  0.00  0.00    +0.000 OA
ENDROOT
TORSDOF 0
