REMARK  Name = ../refined-set-2016/3f5j/3f5j_pocket.pdb
REMARK  273 active torsions:
REMARK  status: ('A' for Active; 'I' for Inactive)
REMARK    1  A    between atoms: _1  and  _3
REMARK    2  A    between atoms: _3  and  _4
REMARK    3  A    between atoms: _3  and  _6
REMARK    4  A    between atoms: _9  and  _11
REMARK    5  A    between atoms: _11  and  _12
REMARK    6  A    between atoms: _11  and  _14
REMARK    7  A    between atoms: _14  and  _15
REMARK    8  A    between atoms: _18  and  _20
REMARK    9  A    between atoms: _20  and  _21
REMARK   10  A    between atoms: _20  and  _23
REMARK   11  A    between atoms: _23  and  _24
REMARK   12  A    between atoms: _26  and  _28
REMARK   13  A    between atoms: _28  and  _29
REMARK   14  A    between atoms: _28  and  _31
REMARK   15  A    between atoms: _31  and  _32
REMARK   16  A    between atoms: _32  and  _33
REMARK   17  A    between atoms: _38  and  _40
REMARK   18  A    between atoms: _40  and  _41
REMARK   19  A    between atoms: _40  and  _43
REMARK   20  A    between atoms: _43  and  _44
REMARK   21  A    between atoms: _44  and  _45
REMARK   22  A    between atoms: _45  and  _46
REMARK   23  A    between atoms: _55  and  _57
REMARK   24  A    between atoms: _57  and  _58
REMARK   25  A    between atoms: _57  and  _60
REMARK   26  A    between atoms: _60  and  _61
REMARK   27  A    between atoms: _63  and  _65
REMARK   28  A    between atoms: _65  and  _66
REMARK   29  A    between atoms: _65  and  _68
REMARK   30  A    between atoms: _68  and  _69
REMARK   31  A    between atoms: _74  and  _76
REMARK   32  A    between atoms: _76  and  _77
REMARK   33  A    between atoms: _76  and  _79
REMARK   34  A    between atoms: _79  and  _80
REMARK   35  A    between atoms: _85  and  _87
REMARK   36  A    between atoms: _87  and  _88
REMARK   37  A    between atoms: _87  and  _90
REMARK   38  A    between atoms: _90  and  _91
REMARK   39  A    between atoms: _96  and  _97
REMARK   40  A    between atoms: _99  and  _101
REMARK   41  A    between atoms: _101  and  _102
REMARK   42  A    between atoms: _101  and  _104
REMARK   43  A    between atoms: _104  and  _105
REMARK   44  A    between atoms: _110  and  _112
REMARK   45  A    between atoms: _112  and  _113
REMARK   46  A    between atoms: _112  and  _115
REMARK   47  A    between atoms: _115  and  _116
REMARK   48  A    between atoms: _116  and  _117
REMARK   49  A    between atoms: _122  and  _124
REMARK   50  A    between atoms: _124  and  _125
REMARK   51  A    between atoms: _124  and  _127
REMARK   52  A    between atoms: _127  and  _128
REMARK   53  A    between atoms: _128  and  _129
REMARK   54  A    between atoms: _129  and  _130
REMARK   55  A    between atoms: _139  and  _141
REMARK   56  A    between atoms: _141  and  _142
REMARK   57  A    between atoms: _141  and  _144
REMARK   58  A    between atoms: _144  and  _145
REMARK   59  A    between atoms: _148  and  _150
REMARK   60  A    between atoms: _150  and  _151
REMARK   61  A    between atoms: _150  and  _153
REMARK   62  A    between atoms: _153  and  _154
REMARK   63  A    between atoms: _157  and  _159
REMARK   64  A    between atoms: _159  and  _160
REMARK   65  A    between atoms: _159  and  _162
REMARK   66  A    between atoms: _162  and  _163
REMARK   67  A    between atoms: _166  and  _168
REMARK   68  A    between atoms: _168  and  _169
REMARK   69  A    between atoms: _168  and  _171
REMARK   70  A    between atoms: _171  and  _172
REMARK   71  A    between atoms: _175  and  _177
REMARK   72  A    between atoms: _177  and  _178
REMARK   73  A    between atoms: _177  and  _180
REMARK   74  A    between atoms: _180  and  _181
REMARK   75  A    between atoms: _181  and  _182
REMARK   76  A    between atoms: _187  and  _189
REMARK   77  A    between atoms: _189  and  _190
REMARK   78  A    between atoms: _189  and  _192
REMARK   79  A    between atoms: _192  and  _193
REMARK   80  A    between atoms: _196  and  _198
REMARK   81  A    between atoms: _198  and  _199
REMARK   82  A    between atoms: _198  and  _201
REMARK   83  A    between atoms: _201  and  _202
REMARK   84  A    between atoms: _207  and  _209
REMARK   85  A    between atoms: _209  and  _210
REMARK   86  A    between atoms: _209  and  _212
REMARK   87  A    between atoms: _215  and  _217
REMARK   88  A    between atoms: _217  and  _218
REMARK   89  A    between atoms: _217  and  _220
REMARK   90  A    between atoms: _220  and  _221
REMARK   91  A    between atoms: _224  and  _226
REMARK   92  A    between atoms: _226  and  _227
REMARK   93  A    between atoms: _226  and  _229
REMARK   94  A    between atoms: _229  and  _230
REMARK   95  A    between atoms: _233  and  _235
REMARK   96  A    between atoms: _235  and  _236
REMARK   97  A    between atoms: _235  and  _238
REMARK   98  A    between atoms: _238  and  _239
REMARK   99  A    between atoms: _245  and  _247
REMARK  100  A    between atoms: _247  and  _248
REMARK  101  A    between atoms: _247  and  _250
REMARK  102  A    between atoms: _250  and  _251
REMARK  103  A    between atoms: _256  and  _258
REMARK  104  A    between atoms: _258  and  _259
REMARK  105  A    between atoms: _258  and  _261
REMARK  106  A    between atoms: _261  and  _262
REMARK  107  A    between atoms: _272  and  _274
REMARK  108  A    between atoms: _274  and  _275
REMARK  109  A    between atoms: _274  and  _277
REMARK  110  A    between atoms: _277  and  _278
REMARK  111  A    between atoms: _283  and  _284
REMARK  112  A    between atoms: _286  and  _288
REMARK  113  A    between atoms: _288  and  _289
REMARK  114  A    between atoms: _288  and  _291
REMARK  115  A    between atoms: _291  and  _292
REMARK  116  A    between atoms: _297  and  _299
REMARK  117  A    between atoms: _299  and  _300
REMARK  118  A    between atoms: _299  and  _302
REMARK  119  A    between atoms: _302  and  _303
REMARK  120  A    between atoms: _308  and  _310
REMARK  121  A    between atoms: _310  and  _311
REMARK  122  A    between atoms: _310  and  _313
REMARK  123  A    between atoms: _313  and  _314
REMARK  124  A    between atoms: _314  and  _315
REMARK  125  A    between atoms: _320  and  _322
REMARK  126  A    between atoms: _322  and  _323
REMARK  127  A    between atoms: _322  and  _325
REMARK  128  A    between atoms: _325  and  _326
REMARK  129  A    between atoms: _331  and  _332
REMARK  130  A    between atoms: _334  and  _336
REMARK  131  A    between atoms: _336  and  _337
REMARK  132  A    between atoms: _336  and  _339
REMARK  133  A    between atoms: _339  and  _340
REMARK  134  A    between atoms: _343  and  _345
REMARK  135  A    between atoms: _345  and  _346
REMARK  136  A    between atoms: _349  and  _351
REMARK  137  A    between atoms: _351  and  _352
REMARK  138  A    between atoms: _351  and  _354
REMARK  139  A    between atoms: _354  and  _355
REMARK  140  A    between atoms: _357  and  _359
REMARK  141  A    between atoms: _359  and  _360
REMARK  142  A    between atoms: _359  and  _362
REMARK  143  A    between atoms: _362  and  _363
REMARK  144  A    between atoms: _363  and  _364
REMARK  145  A    between atoms: _366  and  _368
REMARK  146  A    between atoms: _368  and  _369
REMARK  147  A    between atoms: _368  and  _371
REMARK  148  A    between atoms: _371  and  _372
REMARK  149  A    between atoms: _374  and  _376
REMARK  150  A    between atoms: _376  and  _377
REMARK  151  A    between atoms: _376  and  _379
REMARK  152  A    between atoms: _379  and  _380
REMARK  153  A    between atoms: _385  and  _386
REMARK  154  A    between atoms: _388  and  _390
REMARK  155  A    between atoms: _390  and  _391
REMARK  156  A    between atoms: _390  and  _393
REMARK  157  A    between atoms: _393  and  _394
REMARK  158  A    between atoms: _396  and  _398
REMARK  159  A    between atoms: _398  and  _399
REMARK  160  A    between atoms: _402  and  _404
REMARK  161  A    between atoms: _404  and  _405
REMARK  162  A    between atoms: _404  and  _407
REMARK  163  A    between atoms: _407  and  _408
REMARK  164  A    between atoms: _418  and  _420
REMARK  165  A    between atoms: _420  and  _421
REMARK  166  A    between atoms: _420  and  _423
REMARK  167  A    between atoms: _426  and  _428
REMARK  168  A    between atoms: _428  and  _429
REMARK  169  A    between atoms: _428  and  _431
REMARK  170  A    between atoms: _431  and  _432
REMARK  171  A    between atoms: _435  and  _437
REMARK  172  A    between atoms: _437  and  _438
REMARK  173  A    between atoms: _437  and  _440
REMARK  174  A    between atoms: _440  and  _441
REMARK  175  A    between atoms: _446  and  _447
REMARK  176  A    between atoms: _449  and  _451
REMARK  177  A    between atoms: _451  and  _452
REMARK  178  A    between atoms: _451  and  _454
REMARK  179  A    between atoms: _457  and  _459
REMARK  180  A    between atoms: _459  and  _460
REMARK  181  A    between atoms: _459  and  _462
REMARK  182  A    between atoms: _462  and  _463
REMARK  183  A    between atoms: _469  and  _471
REMARK  184  A    between atoms: _471  and  _472
REMARK  185  A    between atoms: _471  and  _474
REMARK  186  A    between atoms: _474  and  _475
REMARK  187  A    between atoms: _475  and  _476
REMARK  188  A    between atoms: _481  and  _483
REMARK  189  A    between atoms: _483  and  _484
REMARK  190  A    between atoms: _483  and  _486
REMARK  191  A    between atoms: _486  and  _487
REMARK  192  A    between atoms: _489  and  _491
REMARK  193  A    between atoms: _491  and  _492
REMARK  194  A    between atoms: _491  and  _494
REMARK  195  A    between atoms: _494  and  _495
REMARK  196  A    between atoms: _500  and  _502
REMARK  197  A    between atoms: _502  and  _503
REMARK  198  A    between atoms: _502  and  _505
REMARK  199  A    between atoms: _505  and  _506
REMARK  200  A    between atoms: _516  and  _518
REMARK  201  A    between atoms: _518  and  _519
REMARK  202  A    between atoms: _518  and  _521
REMARK  203  A    between atoms: _521  and  _522
REMARK  204  A    between atoms: _525  and  _527
REMARK  205  A    between atoms: _527  and  _528
REMARK  206  A    between atoms: _527  and  _530
REMARK  207  A    between atoms: _530  and  _531
REMARK  208  A    between atoms: _536  and  _537
REMARK  209  A    between atoms: _539  and  _541
REMARK  210  A    between atoms: _541  and  _542
REMARK  211  A    between atoms: _541  and  _544
REMARK  212  A    between atoms: _544  and  _545
REMARK  213  A    between atoms: _548  and  _550
REMARK  214  A    between atoms: _550  and  _551
REMARK  215  A    between atoms: _550  and  _553
REMARK  216  A    between atoms: _553  and  _554
REMARK  217  A    between atoms: _554  and  _555
REMARK  218  A    between atoms: _558  and  _560
REMARK  219  A    between atoms: _560  and  _561
REMARK  220  A    between atoms: _560  and  _563
REMARK  221  A    between atoms: _563  and  _564
REMARK  222  A    between atoms: _569  and  _571
REMARK  223  A    between atoms: _571  and  _572
REMARK  224  A    between atoms: _574  and  _576
REMARK  225  A    between atoms: _576  and  _577
REMARK  226  A    between atoms: _576  and  _579
REMARK  227  A    between atoms: _579  and  _580
REMARK  228  A    between atoms: _580  and  _581
REMARK  229  A    between atoms: _583  and  _585
REMARK  230  A    between atoms: _585  and  _586
REMARK  231  A    between atoms: _585  and  _588
REMARK  232  A    between atoms: _588  and  _589
REMARK  233  A    between atoms: _592  and  _594
REMARK  234  A    between atoms: _594  and  _595
REMARK  235  A    between atoms: _594  and  _597
REMARK  236  A    between atoms: _597  and  _598
REMARK  237  A    between atoms: _608  and  _610
REMARK  238  A    between atoms: _610  and  _611
REMARK  239  A    between atoms: _610  and  _613
REMARK  240  A    between atoms: _613  and  _614
REMARK  241  A    between atoms: _616  and  _618
REMARK  242  A    between atoms: _618  and  _619
REMARK  243  A    between atoms: _618  and  _621
REMARK  244  A    between atoms: _621  and  _622
REMARK  245  A    between atoms: _627  and  _629
REMARK  246  A    between atoms: _629  and  _630
REMARK  247  A    between atoms: _629  and  _632
REMARK  248  A    between atoms: _632  and  _633
REMARK  249  A    between atoms: _639  and  _641
REMARK  250  A    between atoms: _641  and  _642
REMARK  251  A    between atoms: _641  and  _644
REMARK  252  A    between atoms: _644  and  _645
REMARK  253  A    between atoms: _645  and  _646
REMARK  254  A    between atoms: _649  and  _651
REMARK  255  A    between atoms: _651  and  _652
REMARK  256  A    between atoms: _651  and  _654
REMARK  257  A    between atoms: _654  and  _655
REMARK  258  A    between atoms: _665  and  _667
REMARK  259  A    between atoms: _667  and  _668
REMARK  260  A    between atoms: _667  and  _670
REMARK  261  A    between atoms: _670  and  _671
REMARK  262  A    between atoms: _674  and  _676
REMARK  263  A    between atoms: _676  and  _677
REMARK  264  A    between atoms: _676  and  _679
REMARK  265  A    between atoms: _679  and  _680
REMARK  266  A    between atoms: _682  and  _684
REMARK  267  A    between atoms: _684  and  _685
REMARK  268  A    between atoms: _684  and  _687
REMARK  269  A    between atoms: _687  and  _688
REMARK  270  A    between atoms: _690  and  _692
REMARK  271  A    between atoms: _692  and  _693
REMARK  272  A    between atoms: _692  and  _695
REMARK  273  A    between atoms: _695  and  _696
REMARK                            x       y       z     vdW  Elec       q    Type
REMARK                         _______ _______ _______ _____ _____    ______ ____
ROOT
ATOM      1  CA  THR A   2       7.993   2.829  27.452  0.00  0.00    +0.176 C 
ENDROOT
BRANCH   1   4
ATOM      2  C   VAL A   1       9.075   4.881  28.278  0.00  0.00    +0.238 C 
ATOM      3  O   VAL A   1       8.026   5.564  28.354  0.00  0.00    -0.274 OA
ATOM      4  N   THR A   2       9.157   3.680  27.704  0.00  0.00    -0.295 N 
ATOM      5  H   THR A   2      10.095   3.331  27.421  0.00  0.00    +0.150 HD
BRANCH   2   6
ATOM      6  CA  VAL A   1      10.387   5.413  28.851  0.00  0.00    +0.145 C 
BRANCH   6   7
ATOM      7  CB  VAL A   1      10.374   5.034  30.367  0.00  0.00    +0.025 C 
ATOM      8  CG2 VAL A   1      11.374   5.794  31.186  0.00  0.00    +0.002 C 
ATOM      9  CG1 VAL A   1      10.625   3.538  30.553  0.00  0.00    +0.002 C 
ENDBRANCH   6   7
BRANCH   6  10
ATOM     10  N   VAL A   1      10.491   6.859  28.599  0.00  0.00    -0.238 NA
ATOM     11  H   VAL A   1       9.671   7.466  28.801  0.00  0.00    +0.142 HD
ENDBRANCH   6  10
ENDBRANCH   2   6
ENDBRANCH   1   4
BRANCH   1  12
ATOM     12  C   THR A   2       8.348   1.396  27.897  0.00  0.00    +0.243 C 
ATOM     13  O   THR A   2       9.469   1.151  28.340  0.00  0.00    -0.273 OA
ATOM     14  N   SER A   3       7.409   0.459  27.715  0.00  0.00    -0.296 N 
ATOM     15  H   SER A   3       6.439   0.754  27.486  0.00  0.00    +0.150 HD
BRANCH  14  16
ATOM     16  CA  SER A   3       7.708  -0.965  27.829  0.00  0.00    +0.166 C 
BRANCH  16  17
ATOM     17  C   SER A   3       7.000  -1.683  26.683  0.00  0.00    +0.229 C 
ATOM     18  O   SER A   3       6.043  -1.156  26.135  0.00  0.00    -0.286 OA
ENDBRANCH  16  17
BRANCH  16  19
ATOM     19  CB  SER A   3       7.296  -1.519  29.220  0.00  0.00    +0.165 C 
BRANCH  19  20
ATOM     20  OG  SER A   3       5.928  -1.886  29.288  0.00  0.00    -0.380 OA
ATOM     21  H   SER A   3       5.365  -1.093  29.101  0.00  0.00    +0.211 HD
ENDBRANCH  19  20
ENDBRANCH  16  19
ENDBRANCH  14  16
ENDBRANCH   1  12
BRANCH   1  22
ATOM     22  CB  THR A   2       7.619   2.818  25.970  0.00  0.00    +0.137 C 
ATOM     23  CG2 THR A   2       7.236   4.261  25.485  0.00  0.00    +0.034 C 
BRANCH  22  24
ATOM     24  OG1 THR A   2       8.722   2.330  25.205  0.00  0.00    -0.382 OA
ATOM     25  HG1 THR A   2       8.944   1.410  25.497  0.00  0.00    +0.210 HD
ENDBRANCH  22  24
ENDBRANCH   1  22
TORSDOF 11
REMARK  Name = ../refined-set-2016/3f5j/3f5j_pocket.pdb
REMARK  273 active torsions:
REMARK  status: ('A' for Active; 'I' for Inactive)
REMARK    1  A    between atoms: _1  and  _3
REMARK    2  A    between atoms: _3  and  _4
REMARK    3  A    between atoms: _3  and  _6
REMARK    4  A    between atoms: _9  and  _11
REMARK    5  A    between atoms: _11  and  _12
REMARK    6  A    between atoms: _11  and  _14
REMARK    7  A    between atoms: _14  and  _15
REMARK    8  A    between atoms: _18  and  _20
REMARK    9  A    between atoms: _20  and  _21
REMARK   10  A    between atoms: _20  and  _23
REMARK   11  A    between atoms: _23  and  _24
REMARK   12  A    between atoms: _26  and  _28
REMARK   13  A    between atoms: _28  and  _29
REMARK   14  A    between atoms: _28  and  _31
REMARK   15  A    between atoms: _31  and  _32
REMARK   16  A    between atoms: _32  and  _33
REMARK   17  A    between atoms: _38  and  _40
REMARK   18  A    between atoms: _40  and  _41
REMARK   19  A    between atoms: _40  and  _43
REMARK   20  A    between atoms: _43  and  _44
REMARK   21  A    between atoms: _44  and  _45
REMARK   22  A    between atoms: _45  and  _46
REMARK   23  A    between atoms: _55  and  _57
REMARK   24  A    between atoms: _57  and  _58
REMARK   25  A    between atoms: _57  and  _60
REMARK   26  A    between atoms: _60  and  _61
REMARK   27  A    between atoms: _63  and  _65
REMARK   28  A    between atoms: _65  and  _66
REMARK   29  A    between atoms: _65  and  _68
REMARK   30  A    between atoms: _68  and  _69
REMARK   31  A    between atoms: _74  and  _76
REMARK   32  A    between atoms: _76  and  _77
REMARK   33  A    between atoms: _76  and  _79
REMARK   34  A    between atoms: _79  and  _80
REMARK   35  A    between atoms: _85  and  _87
REMARK   36  A    between atoms: _87  and  _88
REMARK   37  A    between atoms: _87  and  _90
REMARK   38  A    between atoms: _90  and  _91
REMARK   39  A    between atoms: _96  and  _97
REMARK   40  A    between atoms: _99  and  _101
REMARK   41  A    between atoms: _101  and  _102
REMARK   42  A    between atoms: _101  and  _104
REMARK   43  A    between atoms: _104  and  _105
REMARK   44  A    between atoms: _110  and  _112
REMARK   45  A    between atoms: _112  and  _113
REMARK   46  A    between atoms: _112  and  _115
REMARK   47  A    between atoms: _115  and  _116
REMARK   48  A    between atoms: _116  and  _117
REMARK   49  A    between atoms: _122  and  _124
REMARK   50  A    between atoms: _124  and  _125
REMARK   51  A    between atoms: _124  and  _127
REMARK   52  A    between atoms: _127  and  _128
REMARK   53  A    between atoms: _128  and  _129
REMARK   54  A    between atoms: _129  and  _130
REMARK   55  A    between atoms: _139  and  _141
REMARK   56  A    between atoms: _141  and  _142
REMARK   57  A    between atoms: _141  and  _144
REMARK   58  A    between atoms: _144  and  _145
REMARK   59  A    between atoms: _148  and  _150
REMARK   60  A    between atoms: _150  and  _151
REMARK   61  A    between atoms: _150  and  _153
REMARK   62  A    between atoms: _153  and  _154
REMARK   63  A    between atoms: _157  and  _159
REMARK   64  A    between atoms: _159  and  _160
REMARK   65  A    between atoms: _159  and  _162
REMARK   66  A    between atoms: _162  and  _163
REMARK   67  A    between atoms: _166  and  _168
REMARK   68  A    between atoms: _168  and  _169
REMARK   69  A    between atoms: _168  and  _171
REMARK   70  A    between atoms: _171  and  _172
REMARK   71  A    between atoms: _175  and  _177
REMARK   72  A    between atoms: _177  and  _178
REMARK   73  A    between atoms: _177  and  _180
REMARK   74  A    between atoms: _180  and  _181
REMARK   75  A    between atoms: _181  and  _182
REMARK   76  A    between atoms: _187  and  _189
REMARK   77  A    between atoms: _189  and  _190
REMARK   78  A    between atoms: _189  and  _192
REMARK   79  A    between atoms: _192  and  _193
REMARK   80  A    between atoms: _196  and  _198
REMARK   81  A    between atoms: _198  and  _199
REMARK   82  A    between atoms: _198  and  _201
REMARK   83  A    between atoms: _201  and  _202
REMARK   84  A    between atoms: _207  and  _209
REMARK   85  A    between atoms: _209  and  _210
REMARK   86  A    between atoms: _209  and  _212
REMARK   87  A    between atoms: _215  and  _217
REMARK   88  A    between atoms: _217  and  _218
REMARK   89  A    between atoms: _217  and  _220
REMARK   90  A    between atoms: _220  and  _221
REMARK   91  A    between atoms: _224  and  _226
REMARK   92  A    between atoms: _226  and  _227
REMARK   93  A    between atoms: _226  and  _229
REMARK   94  A    between atoms: _229  and  _230
REMARK   95  A    between atoms: _233  and  _235
REMARK   96  A    between atoms: _235  and  _236
REMARK   97  A    between atoms: _235  and  _238
REMARK   98  A    between atoms: _238  and  _239
REMARK   99  A    between atoms: _245  and  _247
REMARK  100  A    between atoms: _247  and  _248
REMARK  101  A    between atoms: _247  and  _250
REMARK  102  A    between atoms: _250  and  _251
REMARK  103  A    between atoms: _256  and  _258
REMARK  104  A    between atoms: _258  and  _259
REMARK  105  A    between atoms: _258  and  _261
REMARK  106  A    between atoms: _261  and  _262
REMARK  107  A    between atoms: _272  and  _274
REMARK  108  A    between atoms: _274  and  _275
REMARK  109  A    between atoms: _274  and  _277
REMARK  110  A    between atoms: _277  and  _278
REMARK  111  A    between atoms: _283  and  _284
REMARK  112  A    between atoms: _286  and  _288
REMARK  113  A    between atoms: _288  and  _289
REMARK  114  A    between atoms: _288  and  _291
REMARK  115  A    between atoms: _291  and  _292
REMARK  116  A    between atoms: _297  and  _299
REMARK  117  A    between atoms: _299  and  _300
REMARK  118  A    between atoms: _299  and  _302
REMARK  119  A    between atoms: _302  and  _303
REMARK  120  A    between atoms: _308  and  _310
REMARK  121  A    between atoms: _310  and  _311
REMARK  122  A    between atoms: _310  and  _313
REMARK  123  A    between atoms: _313  and  _314
REMARK  124  A    between atoms: _314  and  _315
REMARK  125  A    between atoms: _320  and  _322
REMARK  126  A    between atoms: _322  and  _323
REMARK  127  A    between atoms: _322  and  _325
REMARK  128  A    between atoms: _325  and  _326
REMARK  129  A    between atoms: _331  and  _332
REMARK  130  A    between atoms: _334  and  _336
REMARK  131  A    between atoms: _336  and  _337
REMARK  132  A    between atoms: _336  and  _339
REMARK  133  A    between atoms: _339  and  _340
REMARK  134  A    between atoms: _343  and  _345
REMARK  135  A    between atoms: _345  and  _346
REMARK  136  A    between atoms: _349  and  _351
REMARK  137  A    between atoms: _351  and  _352
REMARK  138  A    between atoms: _351  and  _354
REMARK  139  A    between atoms: _354  and  _355
REMARK  140  A    between atoms: _357  and  _359
REMARK  141  A    between atoms: _359  and  _360
REMARK  142  A    between atoms: _359  and  _362
REMARK  143  A    between atoms: _362  and  _363
REMARK  144  A    between atoms: _363  and  _364
REMARK  145  A    between atoms: _366  and  _368
REMARK  146  A    between atoms: _368  and  _369
REMARK  147  A    between atoms: _368  and  _371
REMARK  148  A    between atoms: _371  and  _372
REMARK  149  A    between atoms: _374  and  _376
REMARK  150  A    between atoms: _376  and  _377
REMARK  151  A    between atoms: _376  and  _379
REMARK  152  A    between atoms: _379  and  _380
REMARK  153  A    between atoms: _385  and  _386
REMARK  154  A    between atoms: _388  and  _390
REMARK  155  A    between atoms: _390  and  _391
REMARK  156  A    between atoms: _390  and  _393
REMARK  157  A    between atoms: _393  and  _394
REMARK  158  A    between atoms: _396  and  _398
REMARK  159  A    between atoms: _398  and  _399
REMARK  160  A    between atoms: _402  and  _404
REMARK  161  A    between atoms: _404  and  _405
REMARK  162  A    between atoms: _404  and  _407
REMARK  163  A    between atoms: _407  and  _408
REMARK  164  A    between atoms: _418  and  _420
REMARK  165  A    between atoms: _420  and  _421
REMARK  166  A    between atoms: _420  and  _423
REMARK  167  A    between atoms: _426  and  _428
REMARK  168  A    between atoms: _428  and  _429
REMARK  169  A    between atoms: _428  and  _431
REMARK  170  A    between atoms: _431  and  _432
REMARK  171  A    between atoms: _435  and  _437
REMARK  172  A    between atoms: _437  and  _438
REMARK  173  A    between atoms: _437  and  _440
REMARK  174  A    between atoms: _440  and  _441
REMARK  175  A    between atoms: _446  and  _447
REMARK  176  A    between atoms: _449  and  _451
REMARK  177  A    between atoms: _451  and  _452
REMARK  178  A    between atoms: _451  and  _454
REMARK  179  A    between atoms: _457  and  _459
REMARK  180  A    between atoms: _459  and  _460
REMARK  181  A    between atoms: _459  and  _462
REMARK  182  A    between atoms: _462  and  _463
REMARK  183  A    between atoms: _469  and  _471
REMARK  184  A    between atoms: _471  and  _472
REMARK  185  A    between atoms: _471  and  _474
REMARK  186  A    between atoms: _474  and  _475
REMARK  187  A    between atoms: _475  and  _476
REMARK  188  A    between atoms: _481  and  _483
REMARK  189  A    between atoms: _483  and  _484
REMARK  190  A    between atoms: _483  and  _486
REMARK  191  A    between atoms: _486  and  _487
REMARK  192  A    between atoms: _489  and  _491
REMARK  193  A    between atoms: _491  and  _492
REMARK  194  A    between atoms: _491  and  _494
REMARK  195  A    between atoms: _494  and  _495
REMARK  196  A    between atoms: _500  and  _502
REMARK  197  A    between atoms: _502  and  _503
REMARK  198  A    between atoms: _502  and  _505
REMARK  199  A    between atoms: _505  and  _506
REMARK  200  A    between atoms: _516  and  _518
REMARK  201  A    between atoms: _518  and  _519
REMARK  202  A    between atoms: _518  and  _521
REMARK  203  A    between atoms: _521  and  _522
REMARK  204  A    between atoms: _525  and  _527
REMARK  205  A    between atoms: _527  and  _528
REMARK  206  A    between atoms: _527  and  _530
REMARK  207  A    between atoms: _530  and  _531
REMARK  208  A    between atoms: _536  and  _537
REMARK  209  A    between atoms: _539  and  _541
REMARK  210  A    between atoms: _541  and  _542
REMARK  211  A    between atoms: _541  and  _544
REMARK  212  A    between atoms: _544  and  _545
REMARK  213  A    between atoms: _548  and  _550
REMARK  214  A    between atoms: _550  and  _551
REMARK  215  A    between atoms: _550  and  _553
REMARK  216  A    between atoms: _553  and  _554
REMARK  217  A    between atoms: _554  and  _555
REMARK  218  A    between atoms: _558  and  _560
REMARK  219  A    between atoms: _560  and  _561
REMARK  220  A    between atoms: _560  and  _563
REMARK  221  A    between atoms: _563  and  _564
REMARK  222  A    between atoms: _569  and  _571
REMARK  223  A    between atoms: _571  and  _572
REMARK  224  A    between atoms: _574  and  _576
REMARK  225  A    between atoms: _576  and  _577
REMARK  226  A    between atoms: _576  and  _579
REMARK  227  A    between atoms: _579  and  _580
REMARK  228  A    between atoms: _580  and  _581
REMARK  229  A    between atoms: _583  and  _585
REMARK  230  A    between atoms: _585  and  _586
REMARK  231  A    between atoms: _585  and  _588
REMARK  232  A    between atoms: _588  and  _589
REMARK  233  A    between atoms: _592  and  _594
REMARK  234  A    between atoms: _594  and  _595
REMARK  235  A    between atoms: _594  and  _597
REMARK  236  A    between atoms: _597  and  _598
REMARK  237  A    between atoms: _608  and  _610
REMARK  238  A    between atoms: _610  and  _611
REMARK  239  A    between atoms: _610  and  _613
REMARK  240  A    between atoms: _613  and  _614
REMARK  241  A    between atoms: _616  and  _618
REMARK  242  A    between atoms: _618  and  _619
REMARK  243  A    between atoms: _618  and  _621
REMARK  244  A    between atoms: _621  and  _622
REMARK  245  A    between atoms: _627  and  _629
REMARK  246  A    between atoms: _629  and  _630
REMARK  247  A    between atoms: _629  and  _632
REMARK  248  A    between atoms: _632  and  _633
REMARK  249  A    between atoms: _639  and  _641
REMARK  250  A    between atoms: _641  and  _642
REMARK  251  A    between atoms: _641  and  _644
REMARK  252  A    between atoms: _644  and  _645
REMARK  253  A    between atoms: _645  and  _646
REMARK  254  A    between atoms: _649  and  _651
REMARK  255  A    between atoms: _651  and  _652
REMARK  256  A    between atoms: _651  and  _654
REMARK  257  A    between atoms: _654  and  _655
REMARK  258  A    between atoms: _665  and  _667
REMARK  259  A    between atoms: _667  and  _668
REMARK  260  A    between atoms: _667  and  _670
REMARK  261  A    between atoms: _670  and  _671
REMARK  262  A    between atoms: _674  and  _676
REMARK  263  A    between atoms: _676  and  _677
REMARK  264  A    between atoms: _676  and  _679
REMARK  265  A    between atoms: _679  and  _680
REMARK  266  A    between atoms: _682  and  _684
REMARK  267  A    between atoms: _684  and  _685
REMARK  268  A    between atoms: _684  and  _687
REMARK  269  A    between atoms: _687  and  _688
REMARK  270  A    between atoms: _690  and  _692
REMARK  271  A    between atoms: _692  and  _693
REMARK  272  A    between atoms: _692  and  _695
REMARK  273  A    between atoms: _695  and  _696
REMARK                            x       y       z     vdW  Elec       q    Type
REMARK                         _______ _______ _______ _____ _____    ______ ____
ROOT
ATOM      1  CB  GLN A   1       2.934  -0.496  28.140  0.00  0.00    +0.035 C 
ENDROOT
BRANCH   1   2
ATOM      2  CA  GLN A   1       2.462  -1.310  26.936  0.00  0.00    +0.134 C 
BRANCH   2   3
ATOM      3  N   GLN A   1       3.244  -2.534  26.752  0.00  0.00    -0.239 NA
ATOM      4  H   GLN A   1       4.191  -2.611  27.175  0.00  0.00    +0.142 HD
ENDBRANCH   2   3
BRANCH   2   5
ATOM      5  C   GLN A   1       2.333  -0.458  25.688  0.00  0.00    +0.224 C 
ATOM      6  O   GLN A   1       1.362   0.247  25.563  0.00  0.00    -0.287 OA
ENDBRANCH   2   5
ENDBRANCH   1   2
BRANCH   1   7
ATOM      7  CG  GLN A   1       2.792  -1.292  29.441  0.00  0.00    +0.087 C 
BRANCH   7   8
ATOM      8  CD  GLN A   1       3.244  -0.491  30.626  0.00  0.00    +0.219 C 
ATOM      9  NE2 GLN A   1       2.334   0.298  31.216  0.00  0.00    -0.329 N 
ATOM     10 HE21 GLN A   1       2.608   0.896  32.022  0.00  0.00    +0.145 HD
ATOM     11 HE22 GLN A   1       1.354   0.312  30.868  0.00  0.00    +0.145 HD
ATOM     12  OE1 GLN A   1       4.407  -0.548  30.992  0.00  0.00    -0.275 OA
ENDBRANCH   7   8
ENDBRANCH   1   7
TORSDOF 5
REMARK  Name = ../refined-set-2016/3f5j/3f5j_pocket.pdb
REMARK  273 active torsions:
REMARK  status: ('A' for Active; 'I' for Inactive)
REMARK    1  A    between atoms: _1  and  _3
REMARK    2  A    between atoms: _3  and  _4
REMARK    3  A    between atoms: _3  and  _6
REMARK    4  A    between atoms: _9  and  _11
REMARK    5  A    between atoms: _11  and  _12
REMARK    6  A    between atoms: _11  and  _14
REMARK    7  A    between atoms: _14  and  _15
REMARK    8  A    between atoms: _18  and  _20
REMARK    9  A    between atoms: _20  and  _21
REMARK   10  A    between atoms: _20  and  _23
REMARK   11  A    between atoms: _23  and  _24
REMARK   12  A    between atoms: _26  and  _28
REMARK   13  A    between atoms: _28  and  _29
REMARK   14  A    between atoms: _28  and  _31
REMARK   15  A    between atoms: _31  and  _32
REMARK   16  A    between atoms: _32  and  _33
REMARK   17  A    between atoms: _38  and  _40
REMARK   18  A    between atoms: _40  and  _41
REMARK   19  A    between atoms: _40  and  _43
REMARK   20  A    between atoms: _43  and  _44
REMARK   21  A    between atoms: _44  and  _45
REMARK   22  A    between atoms: _45  and  _46
REMARK   23  A    between atoms: _55  and  _57
REMARK   24  A    between atoms: _57  and  _58
REMARK   25  A    between atoms: _57  and  _60
REMARK   26  A    between atoms: _60  and  _61
REMARK   27  A    between atoms: _63  and  _65
REMARK   28  A    between atoms: _65  and  _66
REMARK   29  A    between atoms: _65  and  _68
REMARK   30  A    between atoms: _68  and  _69
REMARK   31  A    between atoms: _74  and  _76
REMARK   32  A    between atoms: _76  and  _77
REMARK   33  A    between atoms: _76  and  _79
REMARK   34  A    between atoms: _79  and  _80
REMARK   35  A    between atoms: _85  and  _87
REMARK   36  A    between atoms: _87  and  _88
REMARK   37  A    between atoms: _87  and  _90
REMARK   38  A    between atoms: _90  and  _91
REMARK   39  A    between atoms: _96  and  _97
REMARK   40  A    between atoms: _99  and  _101
REMARK   41  A    between atoms: _101  and  _102
REMARK   42  A    between atoms: _101  and  _104
REMARK   43  A    between atoms: _104  and  _105
REMARK   44  A    between atoms: _110  and  _112
REMARK   45  A    between atoms: _112  and  _113
REMARK   46  A    between atoms: _112  and  _115
REMARK   47  A    between atoms: _115  and  _116
REMARK   48  A    between atoms: _116  and  _117
REMARK   49  A    between atoms: _122  and  _124
REMARK   50  A    between atoms: _124  and  _125
REMARK   51  A    between atoms: _124  and  _127
REMARK   52  A    between atoms: _127  and  _128
REMARK   53  A    between atoms: _128  and  _129
REMARK   54  A    between atoms: _129  and  _130
REMARK   55  A    between atoms: _139  and  _141
REMARK   56  A    between atoms: _141  and  _142
REMARK   57  A    between atoms: _141  and  _144
REMARK   58  A    between atoms: _144  and  _145
REMARK   59  A    between atoms: _148  and  _150
REMARK   60  A    between atoms: _150  and  _151
REMARK   61  A    between atoms: _150  and  _153
REMARK   62  A    between atoms: _153  and  _154
REMARK   63  A    between atoms: _157  and  _159
REMARK   64  A    between atoms: _159  and  _160
REMARK   65  A    between atoms: _159  and  _162
REMARK   66  A    between atoms: _162  and  _163
REMARK   67  A    between atoms: _166  and  _168
REMARK   68  A    between atoms: _168  and  _169
REMARK   69  A    between atoms: _168  and  _171
REMARK   70  A    between atoms: _171  and  _172
REMARK   71  A    between atoms: _175  and  _177
REMARK   72  A    between atoms: _177  and  _178
REMARK   73  A    between atoms: _177  and  _180
REMARK   74  A    between atoms: _180  and  _181
REMARK   75  A    between atoms: _181  and  _182
REMARK   76  A    between atoms: _187  and  _189
REMARK   77  A    between atoms: _189  and  _190
REMARK   78  A    between atoms: _189  and  _192
REMARK   79  A    between atoms: _192  and  _193
REMARK   80  A    between atoms: _196  and  _198
REMARK   81  A    between atoms: _198  and  _199
REMARK   82  A    between atoms: _198  and  _201
REMARK   83  A    between atoms: _201  and  _202
REMARK   84  A    between atoms: _207  and  _209
REMARK   85  A    between atoms: _209  and  _210
REMARK   86  A    between atoms: _209  and  _212
REMARK   87  A    between atoms: _215  and  _217
REMARK   88  A    between atoms: _217  and  _218
REMARK   89  A    between atoms: _217  and  _220
REMARK   90  A    between atoms: _220  and  _221
REMARK   91  A    between atoms: _224  and  _226
REMARK   92  A    between atoms: _226  and  _227
REMARK   93  A    between atoms: _226  and  _229
REMARK   94  A    between atoms: _229  and  _230
REMARK   95  A    between atoms: _233  and  _235
REMARK   96  A    between atoms: _235  and  _236
REMARK   97  A    between atoms: _235  and  _238
REMARK   98  A    between atoms: _238  and  _239
REMARK   99  A    between atoms: _245  and  _247
REMARK  100  A    between atoms: _247  and  _248
REMARK  101  A    between atoms: _247  and  _250
REMARK  102  A    between atoms: _250  and  _251
REMARK  103  A    between atoms: _256  and  _258
REMARK  104  A    between atoms: _258  and  _259
REMARK  105  A    between atoms: _258  and  _261
REMARK  106  A    between atoms: _261  and  _262
REMARK  107  A    between atoms: _272  and  _274
REMARK  108  A    between atoms: _274  and  _275
REMARK  109  A    between atoms: _274  and  _277
REMARK  110  A    between atoms: _277  and  _278
REMARK  111  A    between atoms: _283  and  _284
REMARK  112  A    between atoms: _286  and  _288
REMARK  113  A    between atoms: _288  and  _289
REMARK  114  A    between atoms: _288  and  _291
REMARK  115  A    between atoms: _291  and  _292
REMARK  116  A    between atoms: _297  and  _299
REMARK  117  A    between atoms: _299  and  _300
REMARK  118  A    between atoms: _299  and  _302
REMARK  119  A    between atoms: _302  and  _303
REMARK  120  A    between atoms: _308  and  _310
REMARK  121  A    between atoms: _310  and  _311
REMARK  122  A    between atoms: _310  and  _313
REMARK  123  A    between atoms: _313  and  _314
REMARK  124  A    between atoms: _314  and  _315
REMARK  125  A    between atoms: _320  and  _322
REMARK  126  A    between atoms: _322  and  _323
REMARK  127  A    between atoms: _322  and  _325
REMARK  128  A    between atoms: _325  and  _326
REMARK  129  A    between atoms: _331  and  _332
REMARK  130  A    between atoms: _334  and  _336
REMARK  131  A    between atoms: _336  and  _337
REMARK  132  A    between atoms: _336  and  _339
REMARK  133  A    between atoms: _339  and  _340
REMARK  134  A    between atoms: _343  and  _345
REMARK  135  A    between atoms: _345  and  _346
REMARK  136  A    between atoms: _349  and  _351
REMARK  137  A    between atoms: _351  and  _352
REMARK  138  A    between atoms: _351  and  _354
REMARK  139  A    between atoms: _354  and  _355
REMARK  140  A    between atoms: _357  and  _359
REMARK  141  A    between atoms: _359  and  _360
REMARK  142  A    between atoms: _359  and  _362
REMARK  143  A    between atoms: _362  and  _363
REMARK  144  A    between atoms: _363  and  _364
REMARK  145  A    between atoms: _366  and  _368
REMARK  146  A    between atoms: _368  and  _369
REMARK  147  A    between atoms: _368  and  _371
REMARK  148  A    between atoms: _371  and  _372
REMARK  149  A    between atoms: _374  and  _376
REMARK  150  A    between atoms: _376  and  _377
REMARK  151  A    between atoms: _376  and  _379
REMARK  152  A    between atoms: _379  and  _380
REMARK  153  A    between atoms: _385  and  _386
REMARK  154  A    between atoms: _388  and  _390
REMARK  155  A    between atoms: _390  and  _391
REMARK  156  A    between atoms: _390  and  _393
REMARK  157  A    between atoms: _393  and  _394
REMARK  158  A    between atoms: _396  and  _398
REMARK  159  A    between atoms: _398  and  _399
REMARK  160  A    between atoms: _402  and  _404
REMARK  161  A    between atoms: _404  and  _405
REMARK  162  A    between atoms: _404  and  _407
REMARK  163  A    between atoms: _407  and  _408
REMARK  164  A    between atoms: _418  and  _420
REMARK  165  A    between atoms: _420  and  _421
REMARK  166  A    between atoms: _420  and  _423
REMARK  167  A    between atoms: _426  and  _428
REMARK  168  A    between atoms: _428  and  _429
REMARK  169  A    between atoms: _428  and  _431
REMARK  170  A    between atoms: _431  and  _432
REMARK  171  A    between atoms: _435  and  _437
REMARK  172  A    between atoms: _437  and  _438
REMARK  173  A    between atoms: _437  and  _440
REMARK  174  A    between atoms: _440  and  _441
REMARK  175  A    between atoms: _446  and  _447
REMARK  176  A    between atoms: _449  and  _451
REMARK  177  A    between atoms: _451  and  _452
REMARK  178  A    between atoms: _451  and  _454
REMARK  179  A    between atoms: _457  and  _459
REMARK  180  A    between atoms: _459  and  _460
REMARK  181  A    between atoms: _459  and  _462
REMARK  182  A    between atoms: _462  and  _463
REMARK  183  A    between atoms: _469  and  _471
REMARK  184  A    between atoms: _471  and  _472
REMARK  185  A    between atoms: _471  and  _474
REMARK  186  A    between atoms: _474  and  _475
REMARK  187  A    between atoms: _475  and  _476
REMARK  188  A    between atoms: _481  and  _483
REMARK  189  A    between atoms: _483  and  _484
REMARK  190  A    between atoms: _483  and  _486
REMARK  191  A    between atoms: _486  and  _487
REMARK  192  A    between atoms: _489  and  _491
REMARK  193  A    between atoms: _491  and  _492
REMARK  194  A    between atoms: _491  and  _494
REMARK  195  A    between atoms: _494  and  _495
REMARK  196  A    between atoms: _500  and  _502
REMARK  197  A    between atoms: _502  and  _503
REMARK  198  A    between atoms: _502  and  _505
REMARK  199  A    between atoms: _505  and  _506
REMARK  200  A    between atoms: _516  and  _518
REMARK  201  A    between atoms: _518  and  _519
REMARK  202  A    between atoms: _518  and  _521
REMARK  203  A    between atoms: _521  and  _522
REMARK  204  A    between atoms: _525  and  _527
REMARK  205  A    between atoms: _527  and  _528
REMARK  206  A    between atoms: _527  and  _530
REMARK  207  A    between atoms: _530  and  _531
REMARK  208  A    between atoms: _536  and  _537
REMARK  209  A    between atoms: _539  and  _541
REMARK  210  A    between atoms: _541  and  _542
REMARK  211  A    between atoms: _541  and  _544
REMARK  212  A    between atoms: _544  and  _545
REMARK  213  A    between atoms: _548  and  _550
REMARK  214  A    between atoms: _550  and  _551
REMARK  215  A    between atoms: _550  and  _553
REMARK  216  A    between atoms: _553  and  _554
REMARK  217  A    between atoms: _554  and  _555
REMARK  218  A    between atoms: _558  and  _560
REMARK  219  A    between atoms: _560  and  _561
REMARK  220  A    between atoms: _560  and  _563
REMARK  221  A    between atoms: _563  and  _564
REMARK  222  A    between atoms: _569  and  _571
REMARK  223  A    between atoms: _571  and  _572
REMARK  224  A    between atoms: _574  and  _576
REMARK  225  A    between atoms: _576  and  _577
REMARK  226  A    between atoms: _576  and  _579
REMARK  227  A    between atoms: _579  and  _580
REMARK  228  A    between atoms: _580  and  _581
REMARK  229  A    between atoms: _583  and  _585
REMARK  230  A    between atoms: _585  and  _586
REMARK  231  A    between atoms: _585  and  _588
REMARK  232  A    between atoms: _588  and  _589
REMARK  233  A    between atoms: _592  and  _594
REMARK  234  A    between atoms: _594  and  _595
REMARK  235  A    between atoms: _594  and  _597
REMARK  236  A    between atoms: _597  and  _598
REMARK  237  A    between atoms: _608  and  _610
REMARK  238  A    between atoms: _610  and  _611
REMARK  239  A    between atoms: _610  and  _613
REMARK  240  A    between atoms: _613  and  _614
REMARK  241  A    between atoms: _616  and  _618
REMARK  242  A    between atoms: _618  and  _619
REMARK  243  A    between atoms: _618  and  _621
REMARK  244  A    between atoms: _621  and  _622
REMARK  245  A    between atoms: _627  and  _629
REMARK  246  A    between atoms: _629  and  _630
REMARK  247  A    between atoms: _629  and  _632
REMARK  248  A    between atoms: _632  and  _633
REMARK  249  A    between atoms: _639  and  _641
REMARK  250  A    between atoms: _641  and  _642
REMARK  251  A    between atoms: _641  and  _644
REMARK  252  A    between atoms: _644  and  _645
REMARK  253  A    between atoms: _645  and  _646
REMARK  254  A    between atoms: _649  and  _651
REMARK  255  A    between atoms: _651  and  _652
REMARK  256  A    between atoms: _651  and  _654
REMARK  257  A    between atoms: _654  and  _655
REMARK  258  A    between atoms: _665  and  _667
REMARK  259  A    between atoms: _667  and  _668
REMARK  260  A    between atoms: _667  and  _670
REMARK  261  A    between atoms: _670  and  _671
REMARK  262  A    between atoms: _674  and  _676
REMARK  263  A    between atoms: _676  and  _677
REMARK  264  A    between atoms: _676  and  _679
REMARK  265  A    between atoms: _679  and  _680
REMARK  266  A    between atoms: _682  and  _684
REMARK  267  A    between atoms: _684  and  _685
REMARK  268  A    between atoms: _684  and  _687
REMARK  269  A    between atoms: _687  and  _688
REMARK  270  A    between atoms: _690  and  _692
REMARK  271  A    between atoms: _692  and  _693
REMARK  272  A    between atoms: _692  and  _695
REMARK  273  A    between atoms: _695  and  _696
REMARK                            x       y       z     vdW  Elec       q    Type
REMARK                         _______ _______ _______ _____ _____    ______ ____
ROOT
ATOM      1  NE  ARG A   1      13.611   1.103  32.087  0.00  0.00    -0.265 N 
ATOM      2  CZ  ARG A   1      12.584   0.947  32.910  0.00  0.00    +0.342 C 
ATOM      3  NH2 ARG A   1      11.946   1.981  33.456  0.00  0.00    -0.292 N 
ATOM      4 HH21 ARG A   1      11.144   1.817  34.097  0.00  0.00    +0.255 HD
ATOM      5 HH22 ARG A   1      12.250   2.952  33.241  0.00  0.00    +0.255 HD
ATOM      6  NH1 ARG A   1      12.196  -0.279  33.226  0.00  0.00    -0.292 N 
ATOM      7 HH11 ARG A   1      11.392  -0.420  33.870  0.00  0.00    +0.255 HD
ATOM      8 HH12 ARG A   1      12.695  -1.101  32.830  0.00  0.00    +0.255 HD
ATOM      9  HE  ARG A   1      14.094   0.239  31.767  0.00  0.00    +0.259 HD
ENDROOT
BRANCH   1  10
ATOM     10  CD  ARG A   1      14.135   2.388  31.581  0.00  0.00    +0.174 C 
BRANCH  10  11
ATOM     11  CG  ARG A   1      14.237   2.239  30.033  0.00  0.00    +0.045 C 
BRANCH  11  12
ATOM     12  CB  ARG A   1      14.306   3.584  29.251  0.00  0.00    +0.029 C 
BRANCH  12  13
ATOM     13  CA  ARG A   1      14.406   3.380  27.730  0.00  0.00    +0.133 C 
BRANCH  13  14
ATOM     14  N   ARG A   1      14.508   4.662  27.058  0.00  0.00    -0.239 NA
ATOM     15  H   ARG A   1      13.972   5.477  27.420  0.00  0.00    +0.142 HD
ENDBRANCH  13  14
BRANCH  13  16
ATOM     16  C   ARG A   1      13.179   2.588  27.204  0.00  0.00    +0.224 C 
ATOM     17  O   ARG A   1      12.036   3.055  27.287  0.00  0.00    -0.287 OA
ENDBRANCH  13  16
ENDBRANCH  12  13
ENDBRANCH  11  12
ENDBRANCH  10  11
ENDBRANCH   1  10
TORSDOF 6
REMARK  Name = ../refined-set-2016/3f5j/3f5j_pocket.pdb
REMARK  273 active torsions:
REMARK  status: ('A' for Active; 'I' for Inactive)
REMARK    1  A    between atoms: _1  and  _3
REMARK    2  A    between atoms: _3  and  _4
REMARK    3  A    between atoms: _3  and  _6
REMARK    4  A    between atoms: _9  and  _11
REMARK    5  A    between atoms: _11  and  _12
REMARK    6  A    between atoms: _11  and  _14
REMARK    7  A    between atoms: _14  and  _15
REMARK    8  A    between atoms: _18  and  _20
REMARK    9  A    between atoms: _20  and  _21
REMARK   10  A    between atoms: _20  and  _23
REMARK   11  A    between atoms: _23  and  _24
REMARK   12  A    between atoms: _26  and  _28
REMARK   13  A    between atoms: _28  and  _29
REMARK   14  A    between atoms: _28  and  _31
REMARK   15  A    between atoms: _31  and  _32
REMARK   16  A    between atoms: _32  and  _33
REMARK   17  A    between atoms: _38  and  _40
REMARK   18  A    between atoms: _40  and  _41
REMARK   19  A    between atoms: _40  and  _43
REMARK   20  A    between atoms: _43  and  _44
REMARK   21  A    between atoms: _44  and  _45
REMARK   22  A    between atoms: _45  and  _46
REMARK   23  A    between atoms: _55  and  _57
REMARK   24  A    between atoms: _57  and  _58
REMARK   25  A    between atoms: _57  and  _60
REMARK   26  A    between atoms: _60  and  _61
REMARK   27  A    between atoms: _63  and  _65
REMARK   28  A    between atoms: _65  and  _66
REMARK   29  A    between atoms: _65  and  _68
REMARK   30  A    between atoms: _68  and  _69
REMARK   31  A    between atoms: _74  and  _76
REMARK   32  A    between atoms: _76  and  _77
REMARK   33  A    between atoms: _76  and  _79
REMARK   34  A    between atoms: _79  and  _80
REMARK   35  A    between atoms: _85  and  _87
REMARK   36  A    between atoms: _87  and  _88
REMARK   37  A    between atoms: _87  and  _90
REMARK   38  A    between atoms: _90  and  _91
REMARK   39  A    between atoms: _96  and  _97
REMARK   40  A    between atoms: _99  and  _101
REMARK   41  A    between atoms: _101  and  _102
REMARK   42  A    between atoms: _101  and  _104
REMARK   43  A    between atoms: _104  and  _105
REMARK   44  A    between atoms: _110  and  _112
REMARK   45  A    between atoms: _112  and  _113
REMARK   46  A    between atoms: _112  and  _115
REMARK   47  A    between atoms: _115  and  _116
REMARK   48  A    between atoms: _116  and  _117
REMARK   49  A    between atoms: _122  and  _124
REMARK   50  A    between atoms: _124  and  _125
REMARK   51  A    between atoms: _124  and  _127
REMARK   52  A    between atoms: _127  and  _128
REMARK   53  A    between atoms: _128  and  _129
REMARK   54  A    between atoms: _129  and  _130
REMARK   55  A    between atoms: _139  and  _141
REMARK   56  A    between atoms: _141  and  _142
REMARK   57  A    between atoms: _141  and  _144
REMARK   58  A    between atoms: _144  and  _145
REMARK   59  A    between atoms: _148  and  _150
REMARK   60  A    between atoms: _150  and  _151
REMARK   61  A    between atoms: _150  and  _153
REMARK   62  A    between atoms: _153  and  _154
REMARK   63  A    between atoms: _157  and  _159
REMARK   64  A    between atoms: _159  and  _160
REMARK   65  A    between atoms: _159  and  _162
REMARK   66  A    between atoms: _162  and  _163
REMARK   67  A    between atoms: _166  and  _168
REMARK   68  A    between atoms: _168  and  _169
REMARK   69  A    between atoms: _168  and  _171
REMARK   70  A    between atoms: _171  and  _172
REMARK   71  A    between atoms: _175  and  _177
REMARK   72  A    between atoms: _177  and  _178
REMARK   73  A    between atoms: _177  and  _180
REMARK   74  A    between atoms: _180  and  _181
REMARK   75  A    between atoms: _181  and  _182
REMARK   76  A    between atoms: _187  and  _189
REMARK   77  A    between atoms: _189  and  _190
REMARK   78  A    between atoms: _189  and  _192
REMARK   79  A    between atoms: _192  and  _193
REMARK   80  A    between atoms: _196  and  _198
REMARK   81  A    between atoms: _198  and  _199
REMARK   82  A    between atoms: _198  and  _201
REMARK   83  A    between atoms: _201  and  _202
REMARK   84  A    between atoms: _207  and  _209
REMARK   85  A    between atoms: _209  and  _210
REMARK   86  A    between atoms: _209  and  _212
REMARK   87  A    between atoms: _215  and  _217
REMARK   88  A    between atoms: _217  and  _218
REMARK   89  A    between atoms: _217  and  _220
REMARK   90  A    between atoms: _220  and  _221
REMARK   91  A    between atoms: _224  and  _226
REMARK   92  A    between atoms: _226  and  _227
REMARK   93  A    between atoms: _226  and  _229
REMARK   94  A    between atoms: _229  and  _230
REMARK   95  A    between atoms: _233  and  _235
REMARK   96  A    between atoms: _235  and  _236
REMARK   97  A    between atoms: _235  and  _238
REMARK   98  A    between atoms: _238  and  _239
REMARK   99  A    between atoms: _245  and  _247
REMARK  100  A    between atoms: _247  and  _248
REMARK  101  A    between atoms: _247  and  _250
REMARK  102  A    between atoms: _250  and  _251
REMARK  103  A    between atoms: _256  and  _258
REMARK  104  A    between atoms: _258  and  _259
REMARK  105  A    between atoms: _258  and  _261
REMARK  106  A    between atoms: _261  and  _262
REMARK  107  A    between atoms: _272  and  _274
REMARK  108  A    between atoms: _274  and  _275
REMARK  109  A    between atoms: _274  and  _277
REMARK  110  A    between atoms: _277  and  _278
REMARK  111  A    between atoms: _283  and  _284
REMARK  112  A    between atoms: _286  and  _288
REMARK  113  A    between atoms: _288  and  _289
REMARK  114  A    between atoms: _288  and  _291
REMARK  115  A    between atoms: _291  and  _292
REMARK  116  A    between atoms: _297  and  _299
REMARK  117  A    between atoms: _299  and  _300
REMARK  118  A    between atoms: _299  and  _302
REMARK  119  A    between atoms: _302  and  _303
REMARK  120  A    between atoms: _308  and  _310
REMARK  121  A    between atoms: _310  and  _311
REMARK  122  A    between atoms: _310  and  _313
REMARK  123  A    between atoms: _313  and  _314
REMARK  124  A    between atoms: _314  and  _315
REMARK  125  A    between atoms: _320  and  _322
REMARK  126  A    between atoms: _322  and  _323
REMARK  127  A    between atoms: _322  and  _325
REMARK  128  A    between atoms: _325  and  _326
REMARK  129  A    between atoms: _331  and  _332
REMARK  130  A    between atoms: _334  and  _336
REMARK  131  A    between atoms: _336  and  _337
REMARK  132  A    between atoms: _336  and  _339
REMARK  133  A    between atoms: _339  and  _340
REMARK  134  A    between atoms: _343  and  _345
REMARK  135  A    between atoms: _345  and  _346
REMARK  136  A    between atoms: _349  and  _351
REMARK  137  A    between atoms: _351  and  _352
REMARK  138  A    between atoms: _351  and  _354
REMARK  139  A    between atoms: _354  and  _355
REMARK  140  A    between atoms: _357  and  _359
REMARK  141  A    between atoms: _359  and  _360
REMARK  142  A    between atoms: _359  and  _362
REMARK  143  A    between atoms: _362  and  _363
REMARK  144  A    between atoms: _363  and  _364
REMARK  145  A    between atoms: _366  and  _368
REMARK  146  A    between atoms: _368  and  _369
REMARK  147  A    between atoms: _368  and  _371
REMARK  148  A    between atoms: _371  and  _372
REMARK  149  A    between atoms: _374  and  _376
REMARK  150  A    between atoms: _376  and  _377
REMARK  151  A    between atoms: _376  and  _379
REMARK  152  A    between atoms: _379  and  _380
REMARK  153  A    between atoms: _385  and  _386
REMARK  154  A    between atoms: _388  and  _390
REMARK  155  A    between atoms: _390  and  _391
REMARK  156  A    between atoms: _390  and  _393
REMARK  157  A    between atoms: _393  and  _394
REMARK  158  A    between atoms: _396  and  _398
REMARK  159  A    between atoms: _398  and  _399
REMARK  160  A    between atoms: _402  and  _404
REMARK  161  A    between atoms: _404  and  _405
REMARK  162  A    between atoms: _404  and  _407
REMARK  163  A    between atoms: _407  and  _408
REMARK  164  A    between atoms: _418  and  _420
REMARK  165  A    between atoms: _420  and  _421
REMARK  166  A    between atoms: _420  and  _423
REMARK  167  A    between atoms: _426  and  _428
REMARK  168  A    between atoms: _428  and  _429
REMARK  169  A    between atoms: _428  and  _431
REMARK  170  A    between atoms: _431  and  _432
REMARK  171  A    between atoms: _435  and  _437
REMARK  172  A    between atoms: _437  and  _438
REMARK  173  A    between atoms: _437  and  _440
REMARK  174  A    between atoms: _440  and  _441
REMARK  175  A    between atoms: _446  and  _447
REMARK  176  A    between atoms: _449  and  _451
REMARK  177  A    between atoms: _451  and  _452
REMARK  178  A    between atoms: _451  and  _454
REMARK  179  A    between atoms: _457  and  _459
REMARK  180  A    between atoms: _459  and  _460
REMARK  181  A    between atoms: _459  and  _462
REMARK  182  A    between atoms: _462  and  _463
REMARK  183  A    between atoms: _469  and  _471
REMARK  184  A    between atoms: _471  and  _472
REMARK  185  A    between atoms: _471  and  _474
REMARK  186  A    between atoms: _474  and  _475
REMARK  187  A    between atoms: _475  and  _476
REMARK  188  A    between atoms: _481  and  _483
REMARK  189  A    between atoms: _483  and  _484
REMARK  190  A    between atoms: _483  and  _486
REMARK  191  A    between atoms: _486  and  _487
REMARK  192  A    between atoms: _489  and  _491
REMARK  193  A    between atoms: _491  and  _492
REMARK  194  A    between atoms: _491  and  _494
REMARK  195  A    between atoms: _494  and  _495
REMARK  196  A    between atoms: _500  and  _502
REMARK  197  A    between atoms: _502  and  _503
REMARK  198  A    between atoms: _502  and  _505
REMARK  199  A    between atoms: _505  and  _506
REMARK  200  A    between atoms: _516  and  _518
REMARK  201  A    between atoms: _518  and  _519
REMARK  202  A    between atoms: _518  and  _521
REMARK  203  A    between atoms: _521  and  _522
REMARK  204  A    between atoms: _525  and  _527
REMARK  205  A    between atoms: _527  and  _528
REMARK  206  A    between atoms: _527  and  _530
REMARK  207  A    between atoms: _530  and  _531
REMARK  208  A    between atoms: _536  and  _537
REMARK  209  A    between atoms: _539  and  _541
REMARK  210  A    between atoms: _541  and  _542
REMARK  211  A    between atoms: _541  and  _544
REMARK  212  A    between atoms: _544  and  _545
REMARK  213  A    between atoms: _548  and  _550
REMARK  214  A    between atoms: _550  and  _551
REMARK  215  A    between atoms: _550  and  _553
REMARK  216  A    between atoms: _553  and  _554
REMARK  217  A    between atoms: _554  and  _555
REMARK  218  A    between atoms: _558  and  _560
REMARK  219  A    between atoms: _560  and  _561
REMARK  220  A    between atoms: _560  and  _563
REMARK  221  A    between atoms: _563  and  _564
REMARK  222  A    between atoms: _569  and  _571
REMARK  223  A    between atoms: _571  and  _572
REMARK  224  A    between atoms: _574  and  _576
REMARK  225  A    between atoms: _576  and  _577
REMARK  226  A    between atoms: _576  and  _579
REMARK  227  A    between atoms: _579  and  _580
REMARK  228  A    between atoms: _580  and  _581
REMARK  229  A    between atoms: _583  and  _585
REMARK  230  A    between atoms: _585  and  _586
REMARK  231  A    between atoms: _585  and  _588
REMARK  232  A    between atoms: _588  and  _589
REMARK  233  A    between atoms: _592  and  _594
REMARK  234  A    between atoms: _594  and  _595
REMARK  235  A    between atoms: _594  and  _597
REMARK  236  A    between atoms: _597  and  _598
REMARK  237  A    between atoms: _608  and  _610
REMARK  238  A    between atoms: _610  and  _611
REMARK  239  A    between atoms: _610  and  _613
REMARK  240  A    between atoms: _613  and  _614
REMARK  241  A    between atoms: _616  and  _618
REMARK  242  A    between atoms: _618  and  _619
REMARK  243  A    between atoms: _618  and  _621
REMARK  244  A    between atoms: _621  and  _622
REMARK  245  A    between atoms: _627  and  _629
REMARK  246  A    between atoms: _629  and  _630
REMARK  247  A    between atoms: _629  and  _632
REMARK  248  A    between atoms: _632  and  _633
REMARK  249  A    between atoms: _639  and  _641
REMARK  250  A    between atoms: _641  and  _642
REMARK  251  A    between atoms: _641  and  _644
REMARK  252  A    between atoms: _644  and  _645
REMARK  253  A    between atoms: _645  and  _646
REMARK  254  A    between atoms: _649  and  _651
REMARK  255  A    between atoms: _651  and  _652
REMARK  256  A    between atoms: _651  and  _654
REMARK  257  A    between atoms: _654  and  _655
REMARK  258  A    between atoms: _665  and  _667
REMARK  259  A    between atoms: _667  and  _668
REMARK  260  A    between atoms: _667  and  _670
REMARK  261  A    between atoms: _670  and  _671
REMARK  262  A    between atoms: _674  and  _676
REMARK  263  A    between atoms: _676  and  _677
REMARK  264  A    between atoms: _676  and  _679
REMARK  265  A    between atoms: _679  and  _680
REMARK  266  A    between atoms: _682  and  _684
REMARK  267  A    between atoms: _684  and  _685
REMARK  268  A    between atoms: _684  and  _687
REMARK  269  A    between atoms: _687  and  _688
REMARK  270  A    between atoms: _690  and  _692
REMARK  271  A    between atoms: _692  and  _693
REMARK  272  A    between atoms: _692  and  _695
REMARK  273  A    between atoms: _695  and  _696
REMARK                            x       y       z     vdW  Elec       q    Type
REMARK                         _______ _______ _______ _____ _____    ______ ____
ROOT
ATOM      1  CA  SER A   1      12.086  -3.180  26.688  0.00  0.00    +0.163 C 
ENDROOT
BRANCH   1   2
ATOM      2  N   SER A   1      11.759  -1.786  26.401  0.00  0.00    -0.237 NA
ATOM      3  H   SER A   1      10.809  -1.533  26.062  0.00  0.00    +0.142 HD
ENDBRANCH   1   2
BRANCH   1   4
ATOM      4  C   SER A   1      11.962  -4.038  25.417  0.00  0.00    +0.227 C 
ATOM      5  O   SER A   1      11.215  -3.714  24.464  0.00  0.00    -0.287 OA
ENDBRANCH   1   4
BRANCH   1   6
ATOM      6  CB  SER A   1      11.255  -3.745  27.874  0.00  0.00    +0.162 C 
BRANCH   6   7
ATOM      7  OG  SER A   1       9.875  -3.875  27.512  0.00  0.00    -0.380 OA
ATOM      8  H   SER A   1       9.366  -4.236  28.281  0.00  0.00    +0.211 HD
ENDBRANCH   6   7
ENDBRANCH   1   6
TORSDOF 4
REMARK  Name = ../refined-set-2016/3f5j/3f5j_pocket.pdb
REMARK  273 active torsions:
REMARK  status: ('A' for Active; 'I' for Inactive)
REMARK    1  A    between atoms: _1  and  _3
REMARK    2  A    between atoms: _3  and  _4
REMARK    3  A    between atoms: _3  and  _6
REMARK    4  A    between atoms: _9  and  _11
REMARK    5  A    between atoms: _11  and  _12
REMARK    6  A    between atoms: _11  and  _14
REMARK    7  A    between atoms: _14  and  _15
REMARK    8  A    between atoms: _18  and  _20
REMARK    9  A    between atoms: _20  and  _21
REMARK   10  A    between atoms: _20  and  _23
REMARK   11  A    between atoms: _23  and  _24
REMARK   12  A    between atoms: _26  and  _28
REMARK   13  A    between atoms: _28  and  _29
REMARK   14  A    between atoms: _28  and  _31
REMARK   15  A    between atoms: _31  and  _32
REMARK   16  A    between atoms: _32  and  _33
REMARK   17  A    between atoms: _38  and  _40
REMARK   18  A    between atoms: _40  and  _41
REMARK   19  A    between atoms: _40  and  _43
REMARK   20  A    between atoms: _43  and  _44
REMARK   21  A    between atoms: _44  and  _45
REMARK   22  A    between atoms: _45  and  _46
REMARK   23  A    between atoms: _55  and  _57
REMARK   24  A    between atoms: _57  and  _58
REMARK   25  A    between atoms: _57  and  _60
REMARK   26  A    between atoms: _60  and  _61
REMARK   27  A    between atoms: _63  and  _65
REMARK   28  A    between atoms: _65  and  _66
REMARK   29  A    between atoms: _65  and  _68
REMARK   30  A    between atoms: _68  and  _69
REMARK   31  A    between atoms: _74  and  _76
REMARK   32  A    between atoms: _76  and  _77
REMARK   33  A    between atoms: _76  and  _79
REMARK   34  A    between atoms: _79  and  _80
REMARK   35  A    between atoms: _85  and  _87
REMARK   36  A    between atoms: _87  and  _88
REMARK   37  A    between atoms: _87  and  _90
REMARK   38  A    between atoms: _90  and  _91
REMARK   39  A    between atoms: _96  and  _97
REMARK   40  A    between atoms: _99  and  _101
REMARK   41  A    between atoms: _101  and  _102
REMARK   42  A    between atoms: _101  and  _104
REMARK   43  A    between atoms: _104  and  _105
REMARK   44  A    between atoms: _110  and  _112
REMARK   45  A    between atoms: _112  and  _113
REMARK   46  A    between atoms: _112  and  _115
REMARK   47  A    between atoms: _115  and  _116
REMARK   48  A    between atoms: _116  and  _117
REMARK   49  A    between atoms: _122  and  _124
REMARK   50  A    between atoms: _124  and  _125
REMARK   51  A    between atoms: _124  and  _127
REMARK   52  A    between atoms: _127  and  _128
REMARK   53  A    between atoms: _128  and  _129
REMARK   54  A    between atoms: _129  and  _130
REMARK   55  A    between atoms: _139  and  _141
REMARK   56  A    between atoms: _141  and  _142
REMARK   57  A    between atoms: _141  and  _144
REMARK   58  A    between atoms: _144  and  _145
REMARK   59  A    between atoms: _148  and  _150
REMARK   60  A    between atoms: _150  and  _151
REMARK   61  A    between atoms: _150  and  _153
REMARK   62  A    between atoms: _153  and  _154
REMARK   63  A    between atoms: _157  and  _159
REMARK   64  A    between atoms: _159  and  _160
REMARK   65  A    between atoms: _159  and  _162
REMARK   66  A    between atoms: _162  and  _163
REMARK   67  A    between atoms: _166  and  _168
REMARK   68  A    between atoms: _168  and  _169
REMARK   69  A    between atoms: _168  and  _171
REMARK   70  A    between atoms: _171  and  _172
REMARK   71  A    between atoms: _175  and  _177
REMARK   72  A    between atoms: _177  and  _178
REMARK   73  A    between atoms: _177  and  _180
REMARK   74  A    between atoms: _180  and  _181
REMARK   75  A    between atoms: _181  and  _182
REMARK   76  A    between atoms: _187  and  _189
REMARK   77  A    between atoms: _189  and  _190
REMARK   78  A    between atoms: _189  and  _192
REMARK   79  A    between atoms: _192  and  _193
REMARK   80  A    between atoms: _196  and  _198
REMARK   81  A    between atoms: _198  and  _199
REMARK   82  A    between atoms: _198  and  _201
REMARK   83  A    between atoms: _201  and  _202
REMARK   84  A    between atoms: _207  and  _209
REMARK   85  A    between atoms: _209  and  _210
REMARK   86  A    between atoms: _209  and  _212
REMARK   87  A    between atoms: _215  and  _217
REMARK   88  A    between atoms: _217  and  _218
REMARK   89  A    between atoms: _217  and  _220
REMARK   90  A    between atoms: _220  and  _221
REMARK   91  A    between atoms: _224  and  _226
REMARK   92  A    between atoms: _226  and  _227
REMARK   93  A    between atoms: _226  and  _229
REMARK   94  A    between atoms: _229  and  _230
REMARK   95  A    between atoms: _233  and  _235
REMARK   96  A    between atoms: _235  and  _236
REMARK   97  A    between atoms: _235  and  _238
REMARK   98  A    between atoms: _238  and  _239
REMARK   99  A    between atoms: _245  and  _247
REMARK  100  A    between atoms: _247  and  _248
REMARK  101  A    between atoms: _247  and  _250
REMARK  102  A    between atoms: _250  and  _251
REMARK  103  A    between atoms: _256  and  _258
REMARK  104  A    between atoms: _258  and  _259
REMARK  105  A    between atoms: _258  and  _261
REMARK  106  A    between atoms: _261  and  _262
REMARK  107  A    between atoms: _272  and  _274
REMARK  108  A    between atoms: _274  and  _275
REMARK  109  A    between atoms: _274  and  _277
REMARK  110  A    between atoms: _277  and  _278
REMARK  111  A    between atoms: _283  and  _284
REMARK  112  A    between atoms: _286  and  _288
REMARK  113  A    between atoms: _288  and  _289
REMARK  114  A    between atoms: _288  and  _291
REMARK  115  A    between atoms: _291  and  _292
REMARK  116  A    between atoms: _297  and  _299
REMARK  117  A    between atoms: _299  and  _300
REMARK  118  A    between atoms: _299  and  _302
REMARK  119  A    between atoms: _302  and  _303
REMARK  120  A    between atoms: _308  and  _310
REMARK  121  A    between atoms: _310  and  _311
REMARK  122  A    between atoms: _310  and  _313
REMARK  123  A    between atoms: _313  and  _314
REMARK  124  A    between atoms: _314  and  _315
REMARK  125  A    between atoms: _320  and  _322
REMARK  126  A    between atoms: _322  and  _323
REMARK  127  A    between atoms: _322  and  _325
REMARK  128  A    between atoms: _325  and  _326
REMARK  129  A    between atoms: _331  and  _332
REMARK  130  A    between atoms: _334  and  _336
REMARK  131  A    between atoms: _336  and  _337
REMARK  132  A    between atoms: _336  and  _339
REMARK  133  A    between atoms: _339  and  _340
REMARK  134  A    between atoms: _343  and  _345
REMARK  135  A    between atoms: _345  and  _346
REMARK  136  A    between atoms: _349  and  _351
REMARK  137  A    between atoms: _351  and  _352
REMARK  138  A    between atoms: _351  and  _354
REMARK  139  A    between atoms: _354  and  _355
REMARK  140  A    between atoms: _357  and  _359
REMARK  141  A    between atoms: _359  and  _360
REMARK  142  A    between atoms: _359  and  _362
REMARK  143  A    between atoms: _362  and  _363
REMARK  144  A    between atoms: _363  and  _364
REMARK  145  A    between atoms: _366  and  _368
REMARK  146  A    between atoms: _368  and  _369
REMARK  147  A    between atoms: _368  and  _371
REMARK  148  A    between atoms: _371  and  _372
REMARK  149  A    between atoms: _374  and  _376
REMARK  150  A    between atoms: _376  and  _377
REMARK  151  A    between atoms: _376  and  _379
REMARK  152  A    between atoms: _379  and  _380
REMARK  153  A    between atoms: _385  and  _386
REMARK  154  A    between atoms: _388  and  _390
REMARK  155  A    between atoms: _390  and  _391
REMARK  156  A    between atoms: _390  and  _393
REMARK  157  A    between atoms: _393  and  _394
REMARK  158  A    between atoms: _396  and  _398
REMARK  159  A    between atoms: _398  and  _399
REMARK  160  A    between atoms: _402  and  _404
REMARK  161  A    between atoms: _404  and  _405
REMARK  162  A    between atoms: _404  and  _407
REMARK  163  A    between atoms: _407  and  _408
REMARK  164  A    between atoms: _418  and  _420
REMARK  165  A    between atoms: _420  and  _421
REMARK  166  A    between atoms: _420  and  _423
REMARK  167  A    between atoms: _426  and  _428
REMARK  168  A    between atoms: _428  and  _429
REMARK  169  A    between atoms: _428  and  _431
REMARK  170  A    between atoms: _431  and  _432
REMARK  171  A    between atoms: _435  and  _437
REMARK  172  A    between atoms: _437  and  _438
REMARK  173  A    between atoms: _437  and  _440
REMARK  174  A    between atoms: _440  and  _441
REMARK  175  A    between atoms: _446  and  _447
REMARK  176  A    between atoms: _449  and  _451
REMARK  177  A    between atoms: _451  and  _452
REMARK  178  A    between atoms: _451  and  _454
REMARK  179  A    between atoms: _457  and  _459
REMARK  180  A    between atoms: _459  and  _460
REMARK  181  A    between atoms: _459  and  _462
REMARK  182  A    between atoms: _462  and  _463
REMARK  183  A    between atoms: _469  and  _471
REMARK  184  A    between atoms: _471  and  _472
REMARK  185  A    between atoms: _471  and  _474
REMARK  186  A    between atoms: _474  and  _475
REMARK  187  A    between atoms: _475  and  _476
REMARK  188  A    between atoms: _481  and  _483
REMARK  189  A    between atoms: _483  and  _484
REMARK  190  A    between atoms: _483  and  _486
REMARK  191  A    between atoms: _486  and  _487
REMARK  192  A    between atoms: _489  and  _491
REMARK  193  A    between atoms: _491  and  _492
REMARK  194  A    between atoms: _491  and  _494
REMARK  195  A    between atoms: _494  and  _495
REMARK  196  A    between atoms: _500  and  _502
REMARK  197  A    between atoms: _502  and  _503
REMARK  198  A    between atoms: _502  and  _505
REMARK  199  A    between atoms: _505  and  _506
REMARK  200  A    between atoms: _516  and  _518
REMARK  201  A    between atoms: _518  and  _519
REMARK  202  A    between atoms: _518  and  _521
REMARK  203  A    between atoms: _521  and  _522
REMARK  204  A    between atoms: _525  and  _527
REMARK  205  A    between atoms: _527  and  _528
REMARK  206  A    between atoms: _527  and  _530
REMARK  207  A    between atoms: _530  and  _531
REMARK  208  A    between atoms: _536  and  _537
REMARK  209  A    between atoms: _539  and  _541
REMARK  210  A    between atoms: _541  and  _542
REMARK  211  A    between atoms: _541  and  _544
REMARK  212  A    between atoms: _544  and  _545
REMARK  213  A    between atoms: _548  and  _550
REMARK  214  A    between atoms: _550  and  _551
REMARK  215  A    between atoms: _550  and  _553
REMARK  216  A    between atoms: _553  and  _554
REMARK  217  A    between atoms: _554  and  _555
REMARK  218  A    between atoms: _558  and  _560
REMARK  219  A    between atoms: _560  and  _561
REMARK  220  A    between atoms: _560  and  _563
REMARK  221  A    between atoms: _563  and  _564
REMARK  222  A    between atoms: _569  and  _571
REMARK  223  A    between atoms: _571  and  _572
REMARK  224  A    between atoms: _574  and  _576
REMARK  225  A    between atoms: _576  and  _577
REMARK  226  A    between atoms: _576  and  _579
REMARK  227  A    between atoms: _579  and  _580
REMARK  228  A    between atoms: _580  and  _581
REMARK  229  A    between atoms: _583  and  _585
REMARK  230  A    between atoms: _585  and  _586
REMARK  231  A    between atoms: _585  and  _588
REMARK  232  A    between atoms: _588  and  _589
REMARK  233  A    between atoms: _592  and  _594
REMARK  234  A    between atoms: _594  and  _595
REMARK  235  A    between atoms: _594  and  _597
REMARK  236  A    between atoms: _597  and  _598
REMARK  237  A    between atoms: _608  and  _610
REMARK  238  A    between atoms: _610  and  _611
REMARK  239  A    between atoms: _610  and  _613
REMARK  240  A    between atoms: _613  and  _614
REMARK  241  A    between atoms: _616  and  _618
REMARK  242  A    between atoms: _618  and  _619
REMARK  243  A    between atoms: _618  and  _621
REMARK  244  A    between atoms: _621  and  _622
REMARK  245  A    between atoms: _627  and  _629
REMARK  246  A    between atoms: _629  and  _630
REMARK  247  A    between atoms: _629  and  _632
REMARK  248  A    between atoms: _632  and  _633
REMARK  249  A    between atoms: _639  and  _641
REMARK  250  A    between atoms: _641  and  _642
REMARK  251  A    between atoms: _641  and  _644
REMARK  252  A    between atoms: _644  and  _645
REMARK  253  A    between atoms: _645  and  _646
REMARK  254  A    between atoms: _649  and  _651
REMARK  255  A    between atoms: _651  and  _652
REMARK  256  A    between atoms: _651  and  _654
REMARK  257  A    between atoms: _654  and  _655
REMARK  258  A    between atoms: _665  and  _667
REMARK  259  A    between atoms: _667  and  _668
REMARK  260  A    between atoms: _667  and  _670
REMARK  261  A    between atoms: _670  and  _671
REMARK  262  A    between atoms: _674  and  _676
REMARK  263  A    between atoms: _676  and  _677
REMARK  264  A    between atoms: _676  and  _679
REMARK  265  A    between atoms: _679  and  _680
REMARK  266  A    between atoms: _682  and  _684
REMARK  267  A    between atoms: _684  and  _685
REMARK  268  A    between atoms: _684  and  _687
REMARK  269  A    between atoms: _687  and  _688
REMARK  270  A    between atoms: _690  and  _692
REMARK  271  A    between atoms: _692  and  _693
REMARK  272  A    between atoms: _692  and  _695
REMARK  273  A    between atoms: _695  and  _696
REMARK                            x       y       z     vdW  Elec       q    Type
REMARK                         _______ _______ _______ _____ _____    ______ ____
ROOT
ATOM      1  CB  ASN A   1      13.961  -3.164  30.170  0.00  0.00    +0.110 C 
ENDROOT
BRANCH   1   2
ATOM      2  CG  ASN A   1      14.167  -2.698  31.582  0.00  0.00    +0.221 C 
ATOM      3  ND2 ASN A   1      13.941  -3.575  32.529  0.00  0.00    -0.329 N 
ATOM      4 HD21 ASN A   1      14.084  -3.313  33.525  0.00  0.00    +0.145 HD
ATOM      5 HD22 ASN A   1      13.619  -4.533  32.284  0.00  0.00    +0.145 HD
ATOM      6  OD1 ASN A   1      14.548  -1.555  31.811  0.00  0.00    -0.275 OA
ENDBRANCH   1   2
BRANCH   1   7
ATOM      7  CA  ASN A   1      15.259  -3.603  29.527  0.00  0.00    +0.142 C 
BRANCH   7   8
ATOM      8  N   ASN A   1      15.712  -2.602  28.585  0.00  0.00    -0.239 NA
ATOM      9  H   ASN A   1      15.016  -1.935  28.194  0.00  0.00    +0.142 HD
ENDBRANCH   7   8
BRANCH   7  10
ATOM     10  C   ASN A   1      15.021  -4.946  28.848  0.00  0.00    +0.225 C 
ATOM     11  O   ASN A   1      14.350  -5.008  27.827  0.00  0.00    -0.287 OA
ENDBRANCH   7  10
ENDBRANCH   1   7
TORSDOF 4
REMARK  Name = ../refined-set-2016/3f5j/3f5j_pocket.pdb
REMARK  273 active torsions:
REMARK  status: ('A' for Active; 'I' for Inactive)
REMARK    1  A    between atoms: _1  and  _3
REMARK    2  A    between atoms: _3  and  _4
REMARK    3  A    between atoms: _3  and  _6
REMARK    4  A    between atoms: _9  and  _11
REMARK    5  A    between atoms: _11  and  _12
REMARK    6  A    between atoms: _11  and  _14
REMARK    7  A    between atoms: _14  and  _15
REMARK    8  A    between atoms: _18  and  _20
REMARK    9  A    between atoms: _20  and  _21
REMARK   10  A    between atoms: _20  and  _23
REMARK   11  A    between atoms: _23  and  _24
REMARK   12  A    between atoms: _26  and  _28
REMARK   13  A    between atoms: _28  and  _29
REMARK   14  A    between atoms: _28  and  _31
REMARK   15  A    between atoms: _31  and  _32
REMARK   16  A    between atoms: _32  and  _33
REMARK   17  A    between atoms: _38  and  _40
REMARK   18  A    between atoms: _40  and  _41
REMARK   19  A    between atoms: _40  and  _43
REMARK   20  A    between atoms: _43  and  _44
REMARK   21  A    between atoms: _44  and  _45
REMARK   22  A    between atoms: _45  and  _46
REMARK   23  A    between atoms: _55  and  _57
REMARK   24  A    between atoms: _57  and  _58
REMARK   25  A    between atoms: _57  and  _60
REMARK   26  A    between atoms: _60  and  _61
REMARK   27  A    between atoms: _63  and  _65
REMARK   28  A    between atoms: _65  and  _66
REMARK   29  A    between atoms: _65  and  _68
REMARK   30  A    between atoms: _68  and  _69
REMARK   31  A    between atoms: _74  and  _76
REMARK   32  A    between atoms: _76  and  _77
REMARK   33  A    between atoms: _76  and  _79
REMARK   34  A    between atoms: _79  and  _80
REMARK   35  A    between atoms: _85  and  _87
REMARK   36  A    between atoms: _87  and  _88
REMARK   37  A    between atoms: _87  and  _90
REMARK   38  A    between atoms: _90  and  _91
REMARK   39  A    between atoms: _96  and  _97
REMARK   40  A    between atoms: _99  and  _101
REMARK   41  A    between atoms: _101  and  _102
REMARK   42  A    between atoms: _101  and  _104
REMARK   43  A    between atoms: _104  and  _105
REMARK   44  A    between atoms: _110  and  _112
REMARK   45  A    between atoms: _112  and  _113
REMARK   46  A    between atoms: _112  and  _115
REMARK   47  A    between atoms: _115  and  _116
REMARK   48  A    between atoms: _116  and  _117
REMARK   49  A    between atoms: _122  and  _124
REMARK   50  A    between atoms: _124  and  _125
REMARK   51  A    between atoms: _124  and  _127
REMARK   52  A    between atoms: _127  and  _128
REMARK   53  A    between atoms: _128  and  _129
REMARK   54  A    between atoms: _129  and  _130
REMARK   55  A    between atoms: _139  and  _141
REMARK   56  A    between atoms: _141  and  _142
REMARK   57  A    between atoms: _141  and  _144
REMARK   58  A    between atoms: _144  and  _145
REMARK   59  A    between atoms: _148  and  _150
REMARK   60  A    between atoms: _150  and  _151
REMARK   61  A    between atoms: _150  and  _153
REMARK   62  A    between atoms: _153  and  _154
REMARK   63  A    between atoms: _157  and  _159
REMARK   64  A    between atoms: _159  and  _160
REMARK   65  A    between atoms: _159  and  _162
REMARK   66  A    between atoms: _162  and  _163
REMARK   67  A    between atoms: _166  and  _168
REMARK   68  A    between atoms: _168  and  _169
REMARK   69  A    between atoms: _168  and  _171
REMARK   70  A    between atoms: _171  and  _172
REMARK   71  A    between atoms: _175  and  _177
REMARK   72  A    between atoms: _177  and  _178
REMARK   73  A    between atoms: _177  and  _180
REMARK   74  A    between atoms: _180  and  _181
REMARK   75  A    between atoms: _181  and  _182
REMARK   76  A    between atoms: _187  and  _189
REMARK   77  A    between atoms: _189  and  _190
REMARK   78  A    between atoms: _189  and  _192
REMARK   79  A    between atoms: _192  and  _193
REMARK   80  A    between atoms: _196  and  _198
REMARK   81  A    between atoms: _198  and  _199
REMARK   82  A    between atoms: _198  and  _201
REMARK   83  A    between atoms: _201  and  _202
REMARK   84  A    between atoms: _207  and  _209
REMARK   85  A    between atoms: _209  and  _210
REMARK   86  A    between atoms: _209  and  _212
REMARK   87  A    between atoms: _215  and  _217
REMARK   88  A    between atoms: _217  and  _218
REMARK   89  A    between atoms: _217  and  _220
REMARK   90  A    between atoms: _220  and  _221
REMARK   91  A    between atoms: _224  and  _226
REMARK   92  A    between atoms: _226  and  _227
REMARK   93  A    between atoms: _226  and  _229
REMARK   94  A    between atoms: _229  and  _230
REMARK   95  A    between atoms: _233  and  _235
REMARK   96  A    between atoms: _235  and  _236
REMARK   97  A    between atoms: _235  and  _238
REMARK   98  A    between atoms: _238  and  _239
REMARK   99  A    between atoms: _245  and  _247
REMARK  100  A    between atoms: _247  and  _248
REMARK  101  A    between atoms: _247  and  _250
REMARK  102  A    between atoms: _250  and  _251
REMARK  103  A    between atoms: _256  and  _258
REMARK  104  A    between atoms: _258  and  _259
REMARK  105  A    between atoms: _258  and  _261
REMARK  106  A    between atoms: _261  and  _262
REMARK  107  A    between atoms: _272  and  _274
REMARK  108  A    between atoms: _274  and  _275
REMARK  109  A    between atoms: _274  and  _277
REMARK  110  A    between atoms: _277  and  _278
REMARK  111  A    between atoms: _283  and  _284
REMARK  112  A    between atoms: _286  and  _288
REMARK  113  A    between atoms: _288  and  _289
REMARK  114  A    between atoms: _288  and  _291
REMARK  115  A    between atoms: _291  and  _292
REMARK  116  A    between atoms: _297  and  _299
REMARK  117  A    between atoms: _299  and  _300
REMARK  118  A    between atoms: _299  and  _302
REMARK  119  A    between atoms: _302  and  _303
REMARK  120  A    between atoms: _308  and  _310
REMARK  121  A    between atoms: _310  and  _311
REMARK  122  A    between atoms: _310  and  _313
REMARK  123  A    between atoms: _313  and  _314
REMARK  124  A    between atoms: _314  and  _315
REMARK  125  A    between atoms: _320  and  _322
REMARK  126  A    between atoms: _322  and  _323
REMARK  127  A    between atoms: _322  and  _325
REMARK  128  A    between atoms: _325  and  _326
REMARK  129  A    between atoms: _331  and  _332
REMARK  130  A    between atoms: _334  and  _336
REMARK  131  A    between atoms: _336  and  _337
REMARK  132  A    between atoms: _336  and  _339
REMARK  133  A    between atoms: _339  and  _340
REMARK  134  A    between atoms: _343  and  _345
REMARK  135  A    between atoms: _345  and  _346
REMARK  136  A    between atoms: _349  and  _351
REMARK  137  A    between atoms: _351  and  _352
REMARK  138  A    between atoms: _351  and  _354
REMARK  139  A    between atoms: _354  and  _355
REMARK  140  A    between atoms: _357  and  _359
REMARK  141  A    between atoms: _359  and  _360
REMARK  142  A    between atoms: _359  and  _362
REMARK  143  A    between atoms: _362  and  _363
REMARK  144  A    between atoms: _363  and  _364
REMARK  145  A    between atoms: _366  and  _368
REMARK  146  A    between atoms: _368  and  _369
REMARK  147  A    between atoms: _368  and  _371
REMARK  148  A    between atoms: _371  and  _372
REMARK  149  A    between atoms: _374  and  _376
REMARK  150  A    between atoms: _376  and  _377
REMARK  151  A    between atoms: _376  and  _379
REMARK  152  A    between atoms: _379  and  _380
REMARK  153  A    between atoms: _385  and  _386
REMARK  154  A    between atoms: _388  and  _390
REMARK  155  A    between atoms: _390  and  _391
REMARK  156  A    between atoms: _390  and  _393
REMARK  157  A    between atoms: _393  and  _394
REMARK  158  A    between atoms: _396  and  _398
REMARK  159  A    between atoms: _398  and  _399
REMARK  160  A    between atoms: _402  and  _404
REMARK  161  A    between atoms: _404  and  _405
REMARK  162  A    between atoms: _404  and  _407
REMARK  163  A    between atoms: _407  and  _408
REMARK  164  A    between atoms: _418  and  _420
REMARK  165  A    between atoms: _420  and  _421
REMARK  166  A    between atoms: _420  and  _423
REMARK  167  A    between atoms: _426  and  _428
REMARK  168  A    between atoms: _428  and  _429
REMARK  169  A    between atoms: _428  and  _431
REMARK  170  A    between atoms: _431  and  _432
REMARK  171  A    between atoms: _435  and  _437
REMARK  172  A    between atoms: _437  and  _438
REMARK  173  A    between atoms: _437  and  _440
REMARK  174  A    between atoms: _440  and  _441
REMARK  175  A    between atoms: _446  and  _447
REMARK  176  A    between atoms: _449  and  _451
REMARK  177  A    between atoms: _451  and  _452
REMARK  178  A    between atoms: _451  and  _454
REMARK  179  A    between atoms: _457  and  _459
REMARK  180  A    between atoms: _459  and  _460
REMARK  181  A    between atoms: _459  and  _462
REMARK  182  A    between atoms: _462  and  _463
REMARK  183  A    between atoms: _469  and  _471
REMARK  184  A    between atoms: _471  and  _472
REMARK  185  A    between atoms: _471  and  _474
REMARK  186  A    between atoms: _474  and  _475
REMARK  187  A    between atoms: _475  and  _476
REMARK  188  A    between atoms: _481  and  _483
REMARK  189  A    between atoms: _483  and  _484
REMARK  190  A    between atoms: _483  and  _486
REMARK  191  A    between atoms: _486  and  _487
REMARK  192  A    between atoms: _489  and  _491
REMARK  193  A    between atoms: _491  and  _492
REMARK  194  A    between atoms: _491  and  _494
REMARK  195  A    between atoms: _494  and  _495
REMARK  196  A    between atoms: _500  and  _502
REMARK  197  A    between atoms: _502  and  _503
REMARK  198  A    between atoms: _502  and  _505
REMARK  199  A    between atoms: _505  and  _506
REMARK  200  A    between atoms: _516  and  _518
REMARK  201  A    between atoms: _518  and  _519
REMARK  202  A    between atoms: _518  and  _521
REMARK  203  A    between atoms: _521  and  _522
REMARK  204  A    between atoms: _525  and  _527
REMARK  205  A    between atoms: _527  and  _528
REMARK  206  A    between atoms: _527  and  _530
REMARK  207  A    between atoms: _530  and  _531
REMARK  208  A    between atoms: _536  and  _537
REMARK  209  A    between atoms: _539  and  _541
REMARK  210  A    between atoms: _541  and  _542
REMARK  211  A    between atoms: _541  and  _544
REMARK  212  A    between atoms: _544  and  _545
REMARK  213  A    between atoms: _548  and  _550
REMARK  214  A    between atoms: _550  and  _551
REMARK  215  A    between atoms: _550  and  _553
REMARK  216  A    between atoms: _553  and  _554
REMARK  217  A    between atoms: _554  and  _555
REMARK  218  A    between atoms: _558  and  _560
REMARK  219  A    between atoms: _560  and  _561
REMARK  220  A    between atoms: _560  and  _563
REMARK  221  A    between atoms: _563  and  _564
REMARK  222  A    between atoms: _569  and  _571
REMARK  223  A    between atoms: _571  and  _572
REMARK  224  A    between atoms: _574  and  _576
REMARK  225  A    between atoms: _576  and  _577
REMARK  226  A    between atoms: _576  and  _579
REMARK  227  A    between atoms: _579  and  _580
REMARK  228  A    between atoms: _580  and  _581
REMARK  229  A    between atoms: _583  and  _585
REMARK  230  A    between atoms: _585  and  _586
REMARK  231  A    between atoms: _585  and  _588
REMARK  232  A    between atoms: _588  and  _589
REMARK  233  A    between atoms: _592  and  _594
REMARK  234  A    between atoms: _594  and  _595
REMARK  235  A    between atoms: _594  and  _597
REMARK  236  A    between atoms: _597  and  _598
REMARK  237  A    between atoms: _608  and  _610
REMARK  238  A    between atoms: _610  and  _611
REMARK  239  A    between atoms: _610  and  _613
REMARK  240  A    between atoms: _613  and  _614
REMARK  241  A    between atoms: _616  and  _618
REMARK  242  A    between atoms: _618  and  _619
REMARK  243  A    between atoms: _618  and  _621
REMARK  244  A    between atoms: _621  and  _622
REMARK  245  A    between atoms: _627  and  _629
REMARK  246  A    between atoms: _629  and  _630
REMARK  247  A    between atoms: _629  and  _632
REMARK  248  A    between atoms: _632  and  _633
REMARK  249  A    between atoms: _639  and  _641
REMARK  250  A    between atoms: _641  and  _642
REMARK  251  A    between atoms: _641  and  _644
REMARK  252  A    between atoms: _644  and  _645
REMARK  253  A    between atoms: _645  and  _646
REMARK  254  A    between atoms: _649  and  _651
REMARK  255  A    between atoms: _651  and  _652
REMARK  256  A    between atoms: _651  and  _654
REMARK  257  A    between atoms: _654  and  _655
REMARK  258  A    between atoms: _665  and  _667
REMARK  259  A    between atoms: _667  and  _668
REMARK  260  A    between atoms: _667  and  _670
REMARK  261  A    between atoms: _670  and  _671
REMARK  262  A    between atoms: _674  and  _676
REMARK  263  A    between atoms: _676  and  _677
REMARK  264  A    between atoms: _676  and  _679
REMARK  265  A    between atoms: _679  and  _680
REMARK  266  A    between atoms: _682  and  _684
REMARK  267  A    between atoms: _684  and  _685
REMARK  268  A    between atoms: _684  and  _687
REMARK  269  A    between atoms: _687  and  _688
REMARK  270  A    between atoms: _690  and  _692
REMARK  271  A    between atoms: _692  and  _693
REMARK  272  A    between atoms: _692  and  _695
REMARK  273  A    between atoms: _695  and  _696
REMARK                            x       y       z     vdW  Elec       q    Type
REMARK                         _______ _______ _______ _____ _____    ______ ____
ROOT
ATOM      1  C   HIS A   1       7.735  -6.547  32.054  0.00  0.00    +0.239 C 
ATOM      2  N   TYR A   2       7.685  -7.556  32.931  0.00  0.00    -0.298 N 
ATOM      3  H   TYR A   2       8.577  -7.846  33.381  0.00  0.00    +0.150 HD
ATOM      4  O   HIS A   1       6.794  -6.219  31.328  0.00  0.00    -0.274 OA
ENDROOT
BRANCH   1   5
ATOM      5  CA  HIS A   1       9.077  -5.824  31.923  0.00  0.00    +0.151 C 
BRANCH   5   6
ATOM      6  N   HIS A   1       9.994  -6.766  31.302  0.00  0.00    -0.238 NA
ATOM      7  H   HIS A   1       9.635  -7.421  30.579  0.00  0.00    +0.142 HD
ENDBRANCH   5   6
BRANCH   5   8
ATOM      8  CB  HIS A   1       8.988  -4.569  31.030  0.00  0.00    +0.074 C 
BRANCH   8   9
ATOM      9  CG  HIS A   1       8.522  -3.313  31.719  0.00  0.00    +0.082 A 
ATOM     10  CD2 HIS A   1       7.277  -3.177  32.314  0.00  0.00    +0.115 A 
ATOM     11  NE2 HIS A   1       7.148  -1.944  32.790  0.00  0.00    -0.221 NA
ATOM     12  CE1 HIS A   1       8.247  -1.274  32.500  0.00  0.00    +0.199 A 
ATOM     13  ND1 HIS A   1       9.124  -2.107  31.838  0.00  0.00    -0.227 NA
ENDBRANCH   8   9
ENDBRANCH   5   8
ENDBRANCH   1   5
BRANCH   2  14
ATOM     14  CA  TYR A   2       6.439  -8.302  33.316  0.00  0.00    +0.141 C 
BRANCH  14  15
ATOM     15  C   TYR A   2       6.002  -9.378  32.339  0.00  0.00    +0.227 C 
ATOM     16  O   TYR A   2       5.087 -10.172  32.648  0.00  0.00    -0.286 OA
ENDBRANCH  14  15
BRANCH  14  17
ATOM     17  CB  TYR A   2       5.203  -7.369  33.521  0.00  0.00    +0.054 C 
BRANCH  17  18
ATOM     18  CG  TYR A   2       5.300  -6.285  34.570  0.00  0.00    -0.020 A 
ATOM     19  CD2 TYR A   2       6.316  -6.276  35.539  0.00  0.00    -0.001 A 
ATOM     20  CE2 TYR A   2       6.355  -5.266  36.568  0.00  0.00    +0.036 A 
ATOM     21  CZ  TYR A   2       5.407  -4.247  36.539  0.00  0.00    +0.134 A 
ATOM     22  CE1 TYR A   2       4.416  -4.244  35.582  0.00  0.00    +0.036 A 
ATOM     23  CD1 TYR A   2       4.350  -5.264  34.608  0.00  0.00    -0.001 A 
BRANCH  21  24
ATOM     24  OH  TYR A   2       5.420  -3.253  37.489  0.00  0.00    -0.506 OA
ATOM     25  HH  TYR A   2       4.679  -2.620  37.313  0.00  0.00    +0.292 HD
ENDBRANCH  21  24
ENDBRANCH  17  18
ENDBRANCH  14  17
ENDBRANCH   2  14
TORSDOF 9
REMARK  Name = ../refined-set-2016/3f5j/3f5j_pocket.pdb
REMARK  273 active torsions:
REMARK  status: ('A' for Active; 'I' for Inactive)
REMARK    1  A    between atoms: _1  and  _3
REMARK    2  A    between atoms: _3  and  _4
REMARK    3  A    between atoms: _3  and  _6
REMARK    4  A    between atoms: _9  and  _11
REMARK    5  A    between atoms: _11  and  _12
REMARK    6  A    between atoms: _11  and  _14
REMARK    7  A    between atoms: _14  and  _15
REMARK    8  A    between atoms: _18  and  _20
REMARK    9  A    between atoms: _20  and  _21
REMARK   10  A    between atoms: _20  and  _23
REMARK   11  A    between atoms: _23  and  _24
REMARK   12  A    between atoms: _26  and  _28
REMARK   13  A    between atoms: _28  and  _29
REMARK   14  A    between atoms: _28  and  _31
REMARK   15  A    between atoms: _31  and  _32
REMARK   16  A    between atoms: _32  and  _33
REMARK   17  A    between atoms: _38  and  _40
REMARK   18  A    between atoms: _40  and  _41
REMARK   19  A    between atoms: _40  and  _43
REMARK   20  A    between atoms: _43  and  _44
REMARK   21  A    between atoms: _44  and  _45
REMARK   22  A    between atoms: _45  and  _46
REMARK   23  A    between atoms: _55  and  _57
REMARK   24  A    between atoms: _57  and  _58
REMARK   25  A    between atoms: _57  and  _60
REMARK   26  A    between atoms: _60  and  _61
REMARK   27  A    between atoms: _63  and  _65
REMARK   28  A    between atoms: _65  and  _66
REMARK   29  A    between atoms: _65  and  _68
REMARK   30  A    between atoms: _68  and  _69
REMARK   31  A    between atoms: _74  and  _76
REMARK   32  A    between atoms: _76  and  _77
REMARK   33  A    between atoms: _76  and  _79
REMARK   34  A    between atoms: _79  and  _80
REMARK   35  A    between atoms: _85  and  _87
REMARK   36  A    between atoms: _87  and  _88
REMARK   37  A    between atoms: _87  and  _90
REMARK   38  A    between atoms: _90  and  _91
REMARK   39  A    between atoms: _96  and  _97
REMARK   40  A    between atoms: _99  and  _101
REMARK   41  A    between atoms: _101  and  _102
REMARK   42  A    between atoms: _101  and  _104
REMARK   43  A    between atoms: _104  and  _105
REMARK   44  A    between atoms: _110  and  _112
REMARK   45  A    between atoms: _112  and  _113
REMARK   46  A    between atoms: _112  and  _115
REMARK   47  A    between atoms: _115  and  _116
REMARK   48  A    between atoms: _116  and  _117
REMARK   49  A    between atoms: _122  and  _124
REMARK   50  A    between atoms: _124  and  _125
REMARK   51  A    between atoms: _124  and  _127
REMARK   52  A    between atoms: _127  and  _128
REMARK   53  A    between atoms: _128  and  _129
REMARK   54  A    between atoms: _129  and  _130
REMARK   55  A    between atoms: _139  and  _141
REMARK   56  A    between atoms: _141  and  _142
REMARK   57  A    between atoms: _141  and  _144
REMARK   58  A    between atoms: _144  and  _145
REMARK   59  A    between atoms: _148  and  _150
REMARK   60  A    between atoms: _150  and  _151
REMARK   61  A    between atoms: _150  and  _153
REMARK   62  A    between atoms: _153  and  _154
REMARK   63  A    between atoms: _157  and  _159
REMARK   64  A    between atoms: _159  and  _160
REMARK   65  A    between atoms: _159  and  _162
REMARK   66  A    between atoms: _162  and  _163
REMARK   67  A    between atoms: _166  and  _168
REMARK   68  A    between atoms: _168  and  _169
REMARK   69  A    between atoms: _168  and  _171
REMARK   70  A    between atoms: _171  and  _172
REMARK   71  A    between atoms: _175  and  _177
REMARK   72  A    between atoms: _177  and  _178
REMARK   73  A    between atoms: _177  and  _180
REMARK   74  A    between atoms: _180  and  _181
REMARK   75  A    between atoms: _181  and  _182
REMARK   76  A    between atoms: _187  and  _189
REMARK   77  A    between atoms: _189  and  _190
REMARK   78  A    between atoms: _189  and  _192
REMARK   79  A    between atoms: _192  and  _193
REMARK   80  A    between atoms: _196  and  _198
REMARK   81  A    between atoms: _198  and  _199
REMARK   82  A    between atoms: _198  and  _201
REMARK   83  A    between atoms: _201  and  _202
REMARK   84  A    between atoms: _207  and  _209
REMARK   85  A    between atoms: _209  and  _210
REMARK   86  A    between atoms: _209  and  _212
REMARK   87  A    between atoms: _215  and  _217
REMARK   88  A    between atoms: _217  and  _218
REMARK   89  A    between atoms: _217  and  _220
REMARK   90  A    between atoms: _220  and  _221
REMARK   91  A    between atoms: _224  and  _226
REMARK   92  A    between atoms: _226  and  _227
REMARK   93  A    between atoms: _226  and  _229
REMARK   94  A    between atoms: _229  and  _230
REMARK   95  A    between atoms: _233  and  _235
REMARK   96  A    between atoms: _235  and  _236
REMARK   97  A    between atoms: _235  and  _238
REMARK   98  A    between atoms: _238  and  _239
REMARK   99  A    between atoms: _245  and  _247
REMARK  100  A    between atoms: _247  and  _248
REMARK  101  A    between atoms: _247  and  _250
REMARK  102  A    between atoms: _250  and  _251
REMARK  103  A    between atoms: _256  and  _258
REMARK  104  A    between atoms: _258  and  _259
REMARK  105  A    between atoms: _258  and  _261
REMARK  106  A    between atoms: _261  and  _262
REMARK  107  A    between atoms: _272  and  _274
REMARK  108  A    between atoms: _274  and  _275
REMARK  109  A    between atoms: _274  and  _277
REMARK  110  A    between atoms: _277  and  _278
REMARK  111  A    between atoms: _283  and  _284
REMARK  112  A    between atoms: _286  and  _288
REMARK  113  A    between atoms: _288  and  _289
REMARK  114  A    between atoms: _288  and  _291
REMARK  115  A    between atoms: _291  and  _292
REMARK  116  A    between atoms: _297  and  _299
REMARK  117  A    between atoms: _299  and  _300
REMARK  118  A    between atoms: _299  and  _302
REMARK  119  A    between atoms: _302  and  _303
REMARK  120  A    between atoms: _308  and  _310
REMARK  121  A    between atoms: _310  and  _311
REMARK  122  A    between atoms: _310  and  _313
REMARK  123  A    between atoms: _313  and  _314
REMARK  124  A    between atoms: _314  and  _315
REMARK  125  A    between atoms: _320  and  _322
REMARK  126  A    between atoms: _322  and  _323
REMARK  127  A    between atoms: _322  and  _325
REMARK  128  A    between atoms: _325  and  _326
REMARK  129  A    between atoms: _331  and  _332
REMARK  130  A    between atoms: _334  and  _336
REMARK  131  A    between atoms: _336  and  _337
REMARK  132  A    between atoms: _336  and  _339
REMARK  133  A    between atoms: _339  and  _340
REMARK  134  A    between atoms: _343  and  _345
REMARK  135  A    between atoms: _345  and  _346
REMARK  136  A    between atoms: _349  and  _351
REMARK  137  A    between atoms: _351  and  _352
REMARK  138  A    between atoms: _351  and  _354
REMARK  139  A    between atoms: _354  and  _355
REMARK  140  A    between atoms: _357  and  _359
REMARK  141  A    between atoms: _359  and  _360
REMARK  142  A    between atoms: _359  and  _362
REMARK  143  A    between atoms: _362  and  _363
REMARK  144  A    between atoms: _363  and  _364
REMARK  145  A    between atoms: _366  and  _368
REMARK  146  A    between atoms: _368  and  _369
REMARK  147  A    between atoms: _368  and  _371
REMARK  148  A    between atoms: _371  and  _372
REMARK  149  A    between atoms: _374  and  _376
REMARK  150  A    between atoms: _376  and  _377
REMARK  151  A    between atoms: _376  and  _379
REMARK  152  A    between atoms: _379  and  _380
REMARK  153  A    between atoms: _385  and  _386
REMARK  154  A    between atoms: _388  and  _390
REMARK  155  A    between atoms: _390  and  _391
REMARK  156  A    between atoms: _390  and  _393
REMARK  157  A    between atoms: _393  and  _394
REMARK  158  A    between atoms: _396  and  _398
REMARK  159  A    between atoms: _398  and  _399
REMARK  160  A    between atoms: _402  and  _404
REMARK  161  A    between atoms: _404  and  _405
REMARK  162  A    between atoms: _404  and  _407
REMARK  163  A    between atoms: _407  and  _408
REMARK  164  A    between atoms: _418  and  _420
REMARK  165  A    between atoms: _420  and  _421
REMARK  166  A    between atoms: _420  and  _423
REMARK  167  A    between atoms: _426  and  _428
REMARK  168  A    between atoms: _428  and  _429
REMARK  169  A    between atoms: _428  and  _431
REMARK  170  A    between atoms: _431  and  _432
REMARK  171  A    between atoms: _435  and  _437
REMARK  172  A    between atoms: _437  and  _438
REMARK  173  A    between atoms: _437  and  _440
REMARK  174  A    between atoms: _440  and  _441
REMARK  175  A    between atoms: _446  and  _447
REMARK  176  A    between atoms: _449  and  _451
REMARK  177  A    between atoms: _451  and  _452
REMARK  178  A    between atoms: _451  and  _454
REMARK  179  A    between atoms: _457  and  _459
REMARK  180  A    between atoms: _459  and  _460
REMARK  181  A    between atoms: _459  and  _462
REMARK  182  A    between atoms: _462  and  _463
REMARK  183  A    between atoms: _469  and  _471
REMARK  184  A    between atoms: _471  and  _472
REMARK  185  A    between atoms: _471  and  _474
REMARK  186  A    between atoms: _474  and  _475
REMARK  187  A    between atoms: _475  and  _476
REMARK  188  A    between atoms: _481  and  _483
REMARK  189  A    between atoms: _483  and  _484
REMARK  190  A    between atoms: _483  and  _486
REMARK  191  A    between atoms: _486  and  _487
REMARK  192  A    between atoms: _489  and  _491
REMARK  193  A    between atoms: _491  and  _492
REMARK  194  A    between atoms: _491  and  _494
REMARK  195  A    between atoms: _494  and  _495
REMARK  196  A    between atoms: _500  and  _502
REMARK  197  A    between atoms: _502  and  _503
REMARK  198  A    between atoms: _502  and  _505
REMARK  199  A    between atoms: _505  and  _506
REMARK  200  A    between atoms: _516  and  _518
REMARK  201  A    between atoms: _518  and  _519
REMARK  202  A    between atoms: _518  and  _521
REMARK  203  A    between atoms: _521  and  _522
REMARK  204  A    between atoms: _525  and  _527
REMARK  205  A    between atoms: _527  and  _528
REMARK  206  A    between atoms: _527  and  _530
REMARK  207  A    between atoms: _530  and  _531
REMARK  208  A    between atoms: _536  and  _537
REMARK  209  A    between atoms: _539  and  _541
REMARK  210  A    between atoms: _541  and  _542
REMARK  211  A    between atoms: _541  and  _544
REMARK  212  A    between atoms: _544  and  _545
REMARK  213  A    between atoms: _548  and  _550
REMARK  214  A    between atoms: _550  and  _551
REMARK  215  A    between atoms: _550  and  _553
REMARK  216  A    between atoms: _553  and  _554
REMARK  217  A    between atoms: _554  and  _555
REMARK  218  A    between atoms: _558  and  _560
REMARK  219  A    between atoms: _560  and  _561
REMARK  220  A    between atoms: _560  and  _563
REMARK  221  A    between atoms: _563  and  _564
REMARK  222  A    between atoms: _569  and  _571
REMARK  223  A    between atoms: _571  and  _572
REMARK  224  A    between atoms: _574  and  _576
REMARK  225  A    between atoms: _576  and  _577
REMARK  226  A    between atoms: _576  and  _579
REMARK  227  A    between atoms: _579  and  _580
REMARK  228  A    between atoms: _580  and  _581
REMARK  229  A    between atoms: _583  and  _585
REMARK  230  A    between atoms: _585  and  _586
REMARK  231  A    between atoms: _585  and  _588
REMARK  232  A    between atoms: _588  and  _589
REMARK  233  A    between atoms: _592  and  _594
REMARK  234  A    between atoms: _594  and  _595
REMARK  235  A    between atoms: _594  and  _597
REMARK  236  A    between atoms: _597  and  _598
REMARK  237  A    between atoms: _608  and  _610
REMARK  238  A    between atoms: _610  and  _611
REMARK  239  A    between atoms: _610  and  _613
REMARK  240  A    between atoms: _613  and  _614
REMARK  241  A    between atoms: _616  and  _618
REMARK  242  A    between atoms: _618  and  _619
REMARK  243  A    between atoms: _618  and  _621
REMARK  244  A    between atoms: _621  and  _622
REMARK  245  A    between atoms: _627  and  _629
REMARK  246  A    between atoms: _629  and  _630
REMARK  247  A    between atoms: _629  and  _632
REMARK  248  A    between atoms: _632  and  _633
REMARK  249  A    between atoms: _639  and  _641
REMARK  250  A    between atoms: _641  and  _642
REMARK  251  A    between atoms: _641  and  _644
REMARK  252  A    between atoms: _644  and  _645
REMARK  253  A    between atoms: _645  and  _646
REMARK  254  A    between atoms: _649  and  _651
REMARK  255  A    between atoms: _651  and  _652
REMARK  256  A    between atoms: _651  and  _654
REMARK  257  A    between atoms: _654  and  _655
REMARK  258  A    between atoms: _665  and  _667
REMARK  259  A    between atoms: _667  and  _668
REMARK  260  A    between atoms: _667  and  _670
REMARK  261  A    between atoms: _670  and  _671
REMARK  262  A    between atoms: _674  and  _676
REMARK  263  A    between atoms: _676  and  _677
REMARK  264  A    between atoms: _676  and  _679
REMARK  265  A    between atoms: _679  and  _680
REMARK  266  A    between atoms: _682  and  _684
REMARK  267  A    between atoms: _684  and  _685
REMARK  268  A    between atoms: _684  and  _687
REMARK  269  A    between atoms: _687  and  _688
REMARK  270  A    between atoms: _690  and  _692
REMARK  271  A    between atoms: _692  and  _693
REMARK  272  A    between atoms: _692  and  _695
REMARK  273  A    between atoms: _695  and  _696
REMARK                            x       y       z     vdW  Elec       q    Type
REMARK                         _______ _______ _______ _____ _____    ______ ____
ROOT
ATOM      1  C   ASN A   1      10.740  -4.275  37.163  0.00  0.00    +0.239 C 
ATOM      2  N   GLN A   2      11.029  -3.631  38.296  0.00  0.00    -0.298 N 
ATOM      3  H   GLN A   2      11.886  -3.042  38.324  0.00  0.00    +0.150 HD
ATOM      4  O   ASN A   1       9.799  -5.078  37.052  0.00  0.00    -0.274 OA
ENDROOT
BRANCH   1   5
ATOM      5  CA  ASN A   1      11.633  -3.953  35.961  0.00  0.00    +0.154 C 
BRANCH   5   6
ATOM      6  N   ASN A   1      12.376  -5.140  35.565  0.00  0.00    -0.238 NA
ATOM      7  H   ASN A   1      11.839  -5.972  35.246  0.00  0.00    +0.142 HD
ENDBRANCH   5   6
BRANCH   5   8
ATOM      8  CB  ASN A   1      10.764  -3.406  34.804  0.00  0.00    +0.111 C 
BRANCH   8   9
ATOM      9  CG  ASN A   1       9.977  -2.177  35.224  0.00  0.00    +0.221 C 
ATOM     10  ND2 ASN A   1       8.698  -2.355  35.509  0.00  0.00    -0.329 N 
ATOM     11 HD21 ASN A   1       8.127  -1.558  35.856  0.00  0.00    +0.145 HD
ATOM     12 HD22 ASN A   1       8.263  -3.292  35.386  0.00  0.00    +0.145 HD
ATOM     13  OD1 ASN A   1      10.536  -1.099  35.350  0.00  0.00    -0.275 OA
ENDBRANCH   8   9
ENDBRANCH   5   8
ENDBRANCH   1   5
BRANCH   2  14
ATOM     14  CA  GLN A   2      10.202  -3.711  39.499  0.00  0.00    +0.137 C 
BRANCH  14  15
ATOM     15  C   GLN A   2       9.863  -5.182  39.872  0.00  0.00    +0.227 C 
ATOM     16  O   GLN A   2       8.700  -5.525  39.923  0.00  0.00    -0.286 OA
ENDBRANCH  14  15
BRANCH  14  17
ATOM     17  CB  GLN A   2       8.908  -2.880  39.310  0.00  0.00    +0.037 C 
BRANCH  17  18
ATOM     18  CG  GLN A   2       9.181  -1.413  38.914  0.00  0.00    +0.087 C 
BRANCH  18  19
ATOM     19  CD  GLN A   2       7.933  -0.527  38.951  0.00  0.00    +0.219 C 
ATOM     20  OE1 GLN A   2       8.037   0.671  39.177  0.00  0.00    -0.275 OA
ATOM     21  NE2 GLN A   2       6.766  -1.111  38.727  0.00  0.00    -0.329 N 
ATOM     22 HE21 GLN A   2       5.892  -0.548  38.739  0.00  0.00    +0.145 HD
ATOM     23 HE22 GLN A   2       6.724  -2.133  38.539  0.00  0.00    +0.145 HD
ENDBRANCH  18  19
ENDBRANCH  17  18
ENDBRANCH  14  17
ENDBRANCH   2  14
TORSDOF 9
REMARK  Name = ../refined-set-2016/3f5j/3f5j_pocket.pdb
REMARK  273 active torsions:
REMARK  status: ('A' for Active; 'I' for Inactive)
REMARK    1  A    between atoms: _1  and  _3
REMARK    2  A    between atoms: _3  and  _4
REMARK    3  A    between atoms: _3  and  _6
REMARK    4  A    between atoms: _9  and  _11
REMARK    5  A    between atoms: _11  and  _12
REMARK    6  A    between atoms: _11  and  _14
REMARK    7  A    between atoms: _14  and  _15
REMARK    8  A    between atoms: _18  and  _20
REMARK    9  A    between atoms: _20  and  _21
REMARK   10  A    between atoms: _20  and  _23
REMARK   11  A    between atoms: _23  and  _24
REMARK   12  A    between atoms: _26  and  _28
REMARK   13  A    between atoms: _28  and  _29
REMARK   14  A    between atoms: _28  and  _31
REMARK   15  A    between atoms: _31  and  _32
REMARK   16  A    between atoms: _32  and  _33
REMARK   17  A    between atoms: _38  and  _40
REMARK   18  A    between atoms: _40  and  _41
REMARK   19  A    between atoms: _40  and  _43
REMARK   20  A    between atoms: _43  and  _44
REMARK   21  A    between atoms: _44  and  _45
REMARK   22  A    between atoms: _45  and  _46
REMARK   23  A    between atoms: _55  and  _57
REMARK   24  A    between atoms: _57  and  _58
REMARK   25  A    between atoms: _57  and  _60
REMARK   26  A    between atoms: _60  and  _61
REMARK   27  A    between atoms: _63  and  _65
REMARK   28  A    between atoms: _65  and  _66
REMARK   29  A    between atoms: _65  and  _68
REMARK   30  A    between atoms: _68  and  _69
REMARK   31  A    between atoms: _74  and  _76
REMARK   32  A    between atoms: _76  and  _77
REMARK   33  A    between atoms: _76  and  _79
REMARK   34  A    between atoms: _79  and  _80
REMARK   35  A    between atoms: _85  and  _87
REMARK   36  A    between atoms: _87  and  _88
REMARK   37  A    between atoms: _87  and  _90
REMARK   38  A    between atoms: _90  and  _91
REMARK   39  A    between atoms: _96  and  _97
REMARK   40  A    between atoms: _99  and  _101
REMARK   41  A    between atoms: _101  and  _102
REMARK   42  A    between atoms: _101  and  _104
REMARK   43  A    between atoms: _104  and  _105
REMARK   44  A    between atoms: _110  and  _112
REMARK   45  A    between atoms: _112  and  _113
REMARK   46  A    between atoms: _112  and  _115
REMARK   47  A    between atoms: _115  and  _116
REMARK   48  A    between atoms: _116  and  _117
REMARK   49  A    between atoms: _122  and  _124
REMARK   50  A    between atoms: _124  and  _125
REMARK   51  A    between atoms: _124  and  _127
REMARK   52  A    between atoms: _127  and  _128
REMARK   53  A    between atoms: _128  and  _129
REMARK   54  A    between atoms: _129  and  _130
REMARK   55  A    between atoms: _139  and  _141
REMARK   56  A    between atoms: _141  and  _142
REMARK   57  A    between atoms: _141  and  _144
REMARK   58  A    between atoms: _144  and  _145
REMARK   59  A    between atoms: _148  and  _150
REMARK   60  A    between atoms: _150  and  _151
REMARK   61  A    between atoms: _150  and  _153
REMARK   62  A    between atoms: _153  and  _154
REMARK   63  A    between atoms: _157  and  _159
REMARK   64  A    between atoms: _159  and  _160
REMARK   65  A    between atoms: _159  and  _162
REMARK   66  A    between atoms: _162  and  _163
REMARK   67  A    between atoms: _166  and  _168
REMARK   68  A    between atoms: _168  and  _169
REMARK   69  A    between atoms: _168  and  _171
REMARK   70  A    between atoms: _171  and  _172
REMARK   71  A    between atoms: _175  and  _177
REMARK   72  A    between atoms: _177  and  _178
REMARK   73  A    between atoms: _177  and  _180
REMARK   74  A    between atoms: _180  and  _181
REMARK   75  A    between atoms: _181  and  _182
REMARK   76  A    between atoms: _187  and  _189
REMARK   77  A    between atoms: _189  and  _190
REMARK   78  A    between atoms: _189  and  _192
REMARK   79  A    between atoms: _192  and  _193
REMARK   80  A    between atoms: _196  and  _198
REMARK   81  A    between atoms: _198  and  _199
REMARK   82  A    between atoms: _198  and  _201
REMARK   83  A    between atoms: _201  and  _202
REMARK   84  A    between atoms: _207  and  _209
REMARK   85  A    between atoms: _209  and  _210
REMARK   86  A    between atoms: _209  and  _212
REMARK   87  A    between atoms: _215  and  _217
REMARK   88  A    between atoms: _217  and  _218
REMARK   89  A    between atoms: _217  and  _220
REMARK   90  A    between atoms: _220  and  _221
REMARK   91  A    between atoms: _224  and  _226
REMARK   92  A    between atoms: _226  and  _227
REMARK   93  A    between atoms: _226  and  _229
REMARK   94  A    between atoms: _229  and  _230
REMARK   95  A    between atoms: _233  and  _235
REMARK   96  A    between atoms: _235  and  _236
REMARK   97  A    between atoms: _235  and  _238
REMARK   98  A    between atoms: _238  and  _239
REMARK   99  A    between atoms: _245  and  _247
REMARK  100  A    between atoms: _247  and  _248
REMARK  101  A    between atoms: _247  and  _250
REMARK  102  A    between atoms: _250  and  _251
REMARK  103  A    between atoms: _256  and  _258
REMARK  104  A    between atoms: _258  and  _259
REMARK  105  A    between atoms: _258  and  _261
REMARK  106  A    between atoms: _261  and  _262
REMARK  107  A    between atoms: _272  and  _274
REMARK  108  A    between atoms: _274  and  _275
REMARK  109  A    between atoms: _274  and  _277
REMARK  110  A    between atoms: _277  and  _278
REMARK  111  A    between atoms: _283  and  _284
REMARK  112  A    between atoms: _286  and  _288
REMARK  113  A    between atoms: _288  and  _289
REMARK  114  A    between atoms: _288  and  _291
REMARK  115  A    between atoms: _291  and  _292
REMARK  116  A    between atoms: _297  and  _299
REMARK  117  A    between atoms: _299  and  _300
REMARK  118  A    between atoms: _299  and  _302
REMARK  119  A    between atoms: _302  and  _303
REMARK  120  A    between atoms: _308  and  _310
REMARK  121  A    between atoms: _310  and  _311
REMARK  122  A    between atoms: _310  and  _313
REMARK  123  A    between atoms: _313  and  _314
REMARK  124  A    between atoms: _314  and  _315
REMARK  125  A    between atoms: _320  and  _322
REMARK  126  A    between atoms: _322  and  _323
REMARK  127  A    between atoms: _322  and  _325
REMARK  128  A    between atoms: _325  and  _326
REMARK  129  A    between atoms: _331  and  _332
REMARK  130  A    between atoms: _334  and  _336
REMARK  131  A    between atoms: _336  and  _337
REMARK  132  A    between atoms: _336  and  _339
REMARK  133  A    between atoms: _339  and  _340
REMARK  134  A    between atoms: _343  and  _345
REMARK  135  A    between atoms: _345  and  _346
REMARK  136  A    between atoms: _349  and  _351
REMARK  137  A    between atoms: _351  and  _352
REMARK  138  A    between atoms: _351  and  _354
REMARK  139  A    between atoms: _354  and  _355
REMARK  140  A    between atoms: _357  and  _359
REMARK  141  A    between atoms: _359  and  _360
REMARK  142  A    between atoms: _359  and  _362
REMARK  143  A    between atoms: _362  and  _363
REMARK  144  A    between atoms: _363  and  _364
REMARK  145  A    between atoms: _366  and  _368
REMARK  146  A    between atoms: _368  and  _369
REMARK  147  A    between atoms: _368  and  _371
REMARK  148  A    between atoms: _371  and  _372
REMARK  149  A    between atoms: _374  and  _376
REMARK  150  A    between atoms: _376  and  _377
REMARK  151  A    between atoms: _376  and  _379
REMARK  152  A    between atoms: _379  and  _380
REMARK  153  A    between atoms: _385  and  _386
REMARK  154  A    between atoms: _388  and  _390
REMARK  155  A    between atoms: _390  and  _391
REMARK  156  A    between atoms: _390  and  _393
REMARK  157  A    between atoms: _393  and  _394
REMARK  158  A    between atoms: _396  and  _398
REMARK  159  A    between atoms: _398  and  _399
REMARK  160  A    between atoms: _402  and  _404
REMARK  161  A    between atoms: _404  and  _405
REMARK  162  A    between atoms: _404  and  _407
REMARK  163  A    between atoms: _407  and  _408
REMARK  164  A    between atoms: _418  and  _420
REMARK  165  A    between atoms: _420  and  _421
REMARK  166  A    between atoms: _420  and  _423
REMARK  167  A    between atoms: _426  and  _428
REMARK  168  A    between atoms: _428  and  _429
REMARK  169  A    between atoms: _428  and  _431
REMARK  170  A    between atoms: _431  and  _432
REMARK  171  A    between atoms: _435  and  _437
REMARK  172  A    between atoms: _437  and  _438
REMARK  173  A    between atoms: _437  and  _440
REMARK  174  A    between atoms: _440  and  _441
REMARK  175  A    between atoms: _446  and  _447
REMARK  176  A    between atoms: _449  and  _451
REMARK  177  A    between atoms: _451  and  _452
REMARK  178  A    between atoms: _451  and  _454
REMARK  179  A    between atoms: _457  and  _459
REMARK  180  A    between atoms: _459  and  _460
REMARK  181  A    between atoms: _459  and  _462
REMARK  182  A    between atoms: _462  and  _463
REMARK  183  A    between atoms: _469  and  _471
REMARK  184  A    between atoms: _471  and  _472
REMARK  185  A    between atoms: _471  and  _474
REMARK  186  A    between atoms: _474  and  _475
REMARK  187  A    between atoms: _475  and  _476
REMARK  188  A    between atoms: _481  and  _483
REMARK  189  A    between atoms: _483  and  _484
REMARK  190  A    between atoms: _483  and  _486
REMARK  191  A    between atoms: _486  and  _487
REMARK  192  A    between atoms: _489  and  _491
REMARK  193  A    between atoms: _491  and  _492
REMARK  194  A    between atoms: _491  and  _494
REMARK  195  A    between atoms: _494  and  _495
REMARK  196  A    between atoms: _500  and  _502
REMARK  197  A    between atoms: _502  and  _503
REMARK  198  A    between atoms: _502  and  _505
REMARK  199  A    between atoms: _505  and  _506
REMARK  200  A    between atoms: _516  and  _518
REMARK  201  A    between atoms: _518  and  _519
REMARK  202  A    between atoms: _518  and  _521
REMARK  203  A    between atoms: _521  and  _522
REMARK  204  A    between atoms: _525  and  _527
REMARK  205  A    between atoms: _527  and  _528
REMARK  206  A    between atoms: _527  and  _530
REMARK  207  A    between atoms: _530  and  _531
REMARK  208  A    between atoms: _536  and  _537
REMARK  209  A    between atoms: _539  and  _541
REMARK  210  A    between atoms: _541  and  _542
REMARK  211  A    between atoms: _541  and  _544
REMARK  212  A    between atoms: _544  and  _545
REMARK  213  A    between atoms: _548  and  _550
REMARK  214  A    between atoms: _550  and  _551
REMARK  215  A    between atoms: _550  and  _553
REMARK  216  A    between atoms: _553  and  _554
REMARK  217  A    between atoms: _554  and  _555
REMARK  218  A    between atoms: _558  and  _560
REMARK  219  A    between atoms: _560  and  _561
REMARK  220  A    between atoms: _560  and  _563
REMARK  221  A    between atoms: _563  and  _564
REMARK  222  A    between atoms: _569  and  _571
REMARK  223  A    between atoms: _571  and  _572
REMARK  224  A    between atoms: _574  and  _576
REMARK  225  A    between atoms: _576  and  _577
REMARK  226  A    between atoms: _576  and  _579
REMARK  227  A    between atoms: _579  and  _580
REMARK  228  A    between atoms: _580  and  _581
REMARK  229  A    between atoms: _583  and  _585
REMARK  230  A    between atoms: _585  and  _586
REMARK  231  A    between atoms: _585  and  _588
REMARK  232  A    between atoms: _588  and  _589
REMARK  233  A    between atoms: _592  and  _594
REMARK  234  A    between atoms: _594  and  _595
REMARK  235  A    between atoms: _594  and  _597
REMARK  236  A    between atoms: _597  and  _598
REMARK  237  A    between atoms: _608  and  _610
REMARK  238  A    between atoms: _610  and  _611
REMARK  239  A    between atoms: _610  and  _613
REMARK  240  A    between atoms: _613  and  _614
REMARK  241  A    between atoms: _616  and  _618
REMARK  242  A    between atoms: _618  and  _619
REMARK  243  A    between atoms: _618  and  _621
REMARK  244  A    between atoms: _621  and  _622
REMARK  245  A    between atoms: _627  and  _629
REMARK  246  A    between atoms: _629  and  _630
REMARK  247  A    between atoms: _629  and  _632
REMARK  248  A    between atoms: _632  and  _633
REMARK  249  A    between atoms: _639  and  _641
REMARK  250  A    between atoms: _641  and  _642
REMARK  251  A    between atoms: _641  and  _644
REMARK  252  A    between atoms: _644  and  _645
REMARK  253  A    between atoms: _645  and  _646
REMARK  254  A    between atoms: _649  and  _651
REMARK  255  A    between atoms: _651  and  _652
REMARK  256  A    between atoms: _651  and  _654
REMARK  257  A    between atoms: _654  and  _655
REMARK  258  A    between atoms: _665  and  _667
REMARK  259  A    between atoms: _667  and  _668
REMARK  260  A    between atoms: _667  and  _670
REMARK  261  A    between atoms: _670  and  _671
REMARK  262  A    between atoms: _674  and  _676
REMARK  263  A    between atoms: _676  and  _677
REMARK  264  A    between atoms: _676  and  _679
REMARK  265  A    between atoms: _679  and  _680
REMARK  266  A    between atoms: _682  and  _684
REMARK  267  A    between atoms: _684  and  _685
REMARK  268  A    between atoms: _684  and  _687
REMARK  269  A    between atoms: _687  and  _688
REMARK  270  A    between atoms: _690  and  _692
REMARK  271  A    between atoms: _692  and  _693
REMARK  272  A    between atoms: _692  and  _695
REMARK  273  A    between atoms: _695  and  _696
REMARK                            x       y       z     vdW  Elec       q    Type
REMARK                         _______ _______ _______ _____ _____    ______ ____
ROOT
ATOM      1  CA  ARG A   1       8.947  -6.085  43.971  0.00  0.00    +0.145 C 
ENDROOT
BRANCH   1   2
ATOM      2  C   ARG A   1       7.459  -6.131  43.573  0.00  0.00    +0.238 C 
ATOM      3  O   ARG A   1       6.679  -6.782  44.238  0.00  0.00    -0.274 OA
ATOM      4  N   ILE A   2       7.089  -5.439  42.481  0.00  0.00    -0.298 N 
ATOM      5  H   ILE A   2       7.818  -4.932  41.939  0.00  0.00    +0.150 HD
BRANCH   4   6
ATOM      6  CA  ILE A   2       5.687  -5.372  42.023  0.00  0.00    +0.137 C 
BRANCH   6   7
ATOM      7  C   ILE A   2       5.229  -6.733  41.467  0.00  0.00    +0.227 C 
ATOM      8  O   ILE A   2       4.095  -7.165  41.691  0.00  0.00    -0.286 OA
ENDBRANCH   6   7
BRANCH   6   9
ATOM      9  CB  ILE A   2       5.469  -4.162  41.038  0.00  0.00    +0.026 C 
ATOM     10  CG2 ILE A   2       3.995  -4.063  40.538  0.00  0.00    +0.002 C 
BRANCH   9  11
ATOM     11  CG1 ILE A   2       5.820  -2.825  41.745  0.00  0.00    +0.002 C 
ATOM     12  CD1 ILE A   2       4.898  -2.492  42.940  0.00  0.00    +0.000 C 
ENDBRANCH   9  11
ENDBRANCH   6   9
ENDBRANCH   4   6
ENDBRANCH   1   2
BRANCH   1  13
ATOM     13  N   ARG A   1       9.846  -6.201  42.781  0.00  0.00    -0.238 NA
ATOM     14  H   ARG A   1      10.538  -5.453  42.571  0.00  0.00    +0.142 HD
ENDBRANCH   1  13
BRANCH   1  15
ATOM     15  CB  ARG A   1       9.190  -4.798  44.750  0.00  0.00    +0.030 C 
BRANCH  15  16
ATOM     16  CG  ARG A   1       8.619  -4.817  46.180  0.00  0.00    +0.045 C 
BRANCH  16  17
ATOM     17  CD  ARG A   1       8.604  -3.419  46.744  0.00  0.00    +0.174 C 
BRANCH  17  18
ATOM     18  NE  ARG A   1       7.431  -2.626  46.310  0.00  0.00    -0.265 N 
ATOM     19  CZ  ARG A   1       6.249  -2.595  46.945  0.00  0.00    +0.342 C 
ATOM     20  NH2 ARG A   1       6.047  -3.320  48.036  0.00  0.00    -0.292 N 
ATOM     21 HH21 ARG A   1       5.127  -3.287  48.519  0.00  0.00    +0.255 HD
ATOM     22 HH22 ARG A   1       6.809  -3.922  48.409  0.00  0.00    +0.255 HD
ATOM     23  NH1 ARG A   1       5.256  -1.810  46.505  0.00  0.00    -0.292 N 
ATOM     24 HH11 ARG A   1       4.345  -1.795  47.006  0.00  0.00    +0.255 HD
ATOM     25 HH12 ARG A   1       5.397  -1.216  45.663  0.00  0.00    +0.255 HD
ATOM     26  HE  ARG A   1       7.531  -2.051  45.449  0.00  0.00    +0.259 HD
ENDBRANCH  17  18
ENDBRANCH  16  17
ENDBRANCH  15  16
ENDBRANCH   1  15
TORSDOF 10
REMARK  Name = ../refined-set-2016/3f5j/3f5j_pocket.pdb
REMARK  273 active torsions:
REMARK  status: ('A' for Active; 'I' for Inactive)
REMARK    1  A    between atoms: _1  and  _3
REMARK    2  A    between atoms: _3  and  _4
REMARK    3  A    between atoms: _3  and  _6
REMARK    4  A    between atoms: _9  and  _11
REMARK    5  A    between atoms: _11  and  _12
REMARK    6  A    between atoms: _11  and  _14
REMARK    7  A    between atoms: _14  and  _15
REMARK    8  A    between atoms: _18  and  _20
REMARK    9  A    between atoms: _20  and  _21
REMARK   10  A    between atoms: _20  and  _23
REMARK   11  A    between atoms: _23  and  _24
REMARK   12  A    between atoms: _26  and  _28
REMARK   13  A    between atoms: _28  and  _29
REMARK   14  A    between atoms: _28  and  _31
REMARK   15  A    between atoms: _31  and  _32
REMARK   16  A    between atoms: _32  and  _33
REMARK   17  A    between atoms: _38  and  _40
REMARK   18  A    between atoms: _40  and  _41
REMARK   19  A    between atoms: _40  and  _43
REMARK   20  A    between atoms: _43  and  _44
REMARK   21  A    between atoms: _44  and  _45
REMARK   22  A    between atoms: _45  and  _46
REMARK   23  A    between atoms: _55  and  _57
REMARK   24  A    between atoms: _57  and  _58
REMARK   25  A    between atoms: _57  and  _60
REMARK   26  A    between atoms: _60  and  _61
REMARK   27  A    between atoms: _63  and  _65
REMARK   28  A    between atoms: _65  and  _66
REMARK   29  A    between atoms: _65  and  _68
REMARK   30  A    between atoms: _68  and  _69
REMARK   31  A    between atoms: _74  and  _76
REMARK   32  A    between atoms: _76  and  _77
REMARK   33  A    between atoms: _76  and  _79
REMARK   34  A    between atoms: _79  and  _80
REMARK   35  A    between atoms: _85  and  _87
REMARK   36  A    between atoms: _87  and  _88
REMARK   37  A    between atoms: _87  and  _90
REMARK   38  A    between atoms: _90  and  _91
REMARK   39  A    between atoms: _96  and  _97
REMARK   40  A    between atoms: _99  and  _101
REMARK   41  A    between atoms: _101  and  _102
REMARK   42  A    between atoms: _101  and  _104
REMARK   43  A    between atoms: _104  and  _105
REMARK   44  A    between atoms: _110  and  _112
REMARK   45  A    between atoms: _112  and  _113
REMARK   46  A    between atoms: _112  and  _115
REMARK   47  A    between atoms: _115  and  _116
REMARK   48  A    between atoms: _116  and  _117
REMARK   49  A    between atoms: _122  and  _124
REMARK   50  A    between atoms: _124  and  _125
REMARK   51  A    between atoms: _124  and  _127
REMARK   52  A    between atoms: _127  and  _128
REMARK   53  A    between atoms: _128  and  _129
REMARK   54  A    between atoms: _129  and  _130
REMARK   55  A    between atoms: _139  and  _141
REMARK   56  A    between atoms: _141  and  _142
REMARK   57  A    between atoms: _141  and  _144
REMARK   58  A    between atoms: _144  and  _145
REMARK   59  A    between atoms: _148  and  _150
REMARK   60  A    between atoms: _150  and  _151
REMARK   61  A    between atoms: _150  and  _153
REMARK   62  A    between atoms: _153  and  _154
REMARK   63  A    between atoms: _157  and  _159
REMARK   64  A    between atoms: _159  and  _160
REMARK   65  A    between atoms: _159  and  _162
REMARK   66  A    between atoms: _162  and  _163
REMARK   67  A    between atoms: _166  and  _168
REMARK   68  A    between atoms: _168  and  _169
REMARK   69  A    between atoms: _168  and  _171
REMARK   70  A    between atoms: _171  and  _172
REMARK   71  A    between atoms: _175  and  _177
REMARK   72  A    between atoms: _177  and  _178
REMARK   73  A    between atoms: _177  and  _180
REMARK   74  A    between atoms: _180  and  _181
REMARK   75  A    between atoms: _181  and  _182
REMARK   76  A    between atoms: _187  and  _189
REMARK   77  A    between atoms: _189  and  _190
REMARK   78  A    between atoms: _189  and  _192
REMARK   79  A    between atoms: _192  and  _193
REMARK   80  A    between atoms: _196  and  _198
REMARK   81  A    between atoms: _198  and  _199
REMARK   82  A    between atoms: _198  and  _201
REMARK   83  A    between atoms: _201  and  _202
REMARK   84  A    between atoms: _207  and  _209
REMARK   85  A    between atoms: _209  and  _210
REMARK   86  A    between atoms: _209  and  _212
REMARK   87  A    between atoms: _215  and  _217
REMARK   88  A    between atoms: _217  and  _218
REMARK   89  A    between atoms: _217  and  _220
REMARK   90  A    between atoms: _220  and  _221
REMARK   91  A    between atoms: _224  and  _226
REMARK   92  A    between atoms: _226  and  _227
REMARK   93  A    between atoms: _226  and  _229
REMARK   94  A    between atoms: _229  and  _230
REMARK   95  A    between atoms: _233  and  _235
REMARK   96  A    between atoms: _235  and  _236
REMARK   97  A    between atoms: _235  and  _238
REMARK   98  A    between atoms: _238  and  _239
REMARK   99  A    between atoms: _245  and  _247
REMARK  100  A    between atoms: _247  and  _248
REMARK  101  A    between atoms: _247  and  _250
REMARK  102  A    between atoms: _250  and  _251
REMARK  103  A    between atoms: _256  and  _258
REMARK  104  A    between atoms: _258  and  _259
REMARK  105  A    between atoms: _258  and  _261
REMARK  106  A    between atoms: _261  and  _262
REMARK  107  A    between atoms: _272  and  _274
REMARK  108  A    between atoms: _274  and  _275
REMARK  109  A    between atoms: _274  and  _277
REMARK  110  A    between atoms: _277  and  _278
REMARK  111  A    between atoms: _283  and  _284
REMARK  112  A    between atoms: _286  and  _288
REMARK  113  A    between atoms: _288  and  _289
REMARK  114  A    between atoms: _288  and  _291
REMARK  115  A    between atoms: _291  and  _292
REMARK  116  A    between atoms: _297  and  _299
REMARK  117  A    between atoms: _299  and  _300
REMARK  118  A    between atoms: _299  and  _302
REMARK  119  A    between atoms: _302  and  _303
REMARK  120  A    between atoms: _308  and  _310
REMARK  121  A    between atoms: _310  and  _311
REMARK  122  A    between atoms: _310  and  _313
REMARK  123  A    between atoms: _313  and  _314
REMARK  124  A    between atoms: _314  and  _315
REMARK  125  A    between atoms: _320  and  _322
REMARK  126  A    between atoms: _322  and  _323
REMARK  127  A    between atoms: _322  and  _325
REMARK  128  A    between atoms: _325  and  _326
REMARK  129  A    between atoms: _331  and  _332
REMARK  130  A    between atoms: _334  and  _336
REMARK  131  A    between atoms: _336  and  _337
REMARK  132  A    between atoms: _336  and  _339
REMARK  133  A    between atoms: _339  and  _340
REMARK  134  A    between atoms: _343  and  _345
REMARK  135  A    between atoms: _345  and  _346
REMARK  136  A    between atoms: _349  and  _351
REMARK  137  A    between atoms: _351  and  _352
REMARK  138  A    between atoms: _351  and  _354
REMARK  139  A    between atoms: _354  and  _355
REMARK  140  A    between atoms: _357  and  _359
REMARK  141  A    between atoms: _359  and  _360
REMARK  142  A    between atoms: _359  and  _362
REMARK  143  A    between atoms: _362  and  _363
REMARK  144  A    between atoms: _363  and  _364
REMARK  145  A    between atoms: _366  and  _368
REMARK  146  A    between atoms: _368  and  _369
REMARK  147  A    between atoms: _368  and  _371
REMARK  148  A    between atoms: _371  and  _372
REMARK  149  A    between atoms: _374  and  _376
REMARK  150  A    between atoms: _376  and  _377
REMARK  151  A    between atoms: _376  and  _379
REMARK  152  A    between atoms: _379  and  _380
REMARK  153  A    between atoms: _385  and  _386
REMARK  154  A    between atoms: _388  and  _390
REMARK  155  A    between atoms: _390  and  _391
REMARK  156  A    between atoms: _390  and  _393
REMARK  157  A    between atoms: _393  and  _394
REMARK  158  A    between atoms: _396  and  _398
REMARK  159  A    between atoms: _398  and  _399
REMARK  160  A    between atoms: _402  and  _404
REMARK  161  A    between atoms: _404  and  _405
REMARK  162  A    between atoms: _404  and  _407
REMARK  163  A    between atoms: _407  and  _408
REMARK  164  A    between atoms: _418  and  _420
REMARK  165  A    between atoms: _420  and  _421
REMARK  166  A    between atoms: _420  and  _423
REMARK  167  A    between atoms: _426  and  _428
REMARK  168  A    between atoms: _428  and  _429
REMARK  169  A    between atoms: _428  and  _431
REMARK  170  A    between atoms: _431  and  _432
REMARK  171  A    between atoms: _435  and  _437
REMARK  172  A    between atoms: _437  and  _438
REMARK  173  A    between atoms: _437  and  _440
REMARK  174  A    between atoms: _440  and  _441
REMARK  175  A    between atoms: _446  and  _447
REMARK  176  A    between atoms: _449  and  _451
REMARK  177  A    between atoms: _451  and  _452
REMARK  178  A    between atoms: _451  and  _454
REMARK  179  A    between atoms: _457  and  _459
REMARK  180  A    between atoms: _459  and  _460
REMARK  181  A    between atoms: _459  and  _462
REMARK  182  A    between atoms: _462  and  _463
REMARK  183  A    between atoms: _469  and  _471
REMARK  184  A    between atoms: _471  and  _472
REMARK  185  A    between atoms: _471  and  _474
REMARK  186  A    between atoms: _474  and  _475
REMARK  187  A    between atoms: _475  and  _476
REMARK  188  A    between atoms: _481  and  _483
REMARK  189  A    between atoms: _483  and  _484
REMARK  190  A    between atoms: _483  and  _486
REMARK  191  A    between atoms: _486  and  _487
REMARK  192  A    between atoms: _489  and  _491
REMARK  193  A    between atoms: _491  and  _492
REMARK  194  A    between atoms: _491  and  _494
REMARK  195  A    between atoms: _494  and  _495
REMARK  196  A    between atoms: _500  and  _502
REMARK  197  A    between atoms: _502  and  _503
REMARK  198  A    between atoms: _502  and  _505
REMARK  199  A    between atoms: _505  and  _506
REMARK  200  A    between atoms: _516  and  _518
REMARK  201  A    between atoms: _518  and  _519
REMARK  202  A    between atoms: _518  and  _521
REMARK  203  A    between atoms: _521  and  _522
REMARK  204  A    between atoms: _525  and  _527
REMARK  205  A    between atoms: _527  and  _528
REMARK  206  A    between atoms: _527  and  _530
REMARK  207  A    between atoms: _530  and  _531
REMARK  208  A    between atoms: _536  and  _537
REMARK  209  A    between atoms: _539  and  _541
REMARK  210  A    between atoms: _541  and  _542
REMARK  211  A    between atoms: _541  and  _544
REMARK  212  A    between atoms: _544  and  _545
REMARK  213  A    between atoms: _548  and  _550
REMARK  214  A    between atoms: _550  and  _551
REMARK  215  A    between atoms: _550  and  _553
REMARK  216  A    between atoms: _553  and  _554
REMARK  217  A    between atoms: _554  and  _555
REMARK  218  A    between atoms: _558  and  _560
REMARK  219  A    between atoms: _560  and  _561
REMARK  220  A    between atoms: _560  and  _563
REMARK  221  A    between atoms: _563  and  _564
REMARK  222  A    between atoms: _569  and  _571
REMARK  223  A    between atoms: _571  and  _572
REMARK  224  A    between atoms: _574  and  _576
REMARK  225  A    between atoms: _576  and  _577
REMARK  226  A    between atoms: _576  and  _579
REMARK  227  A    between atoms: _579  and  _580
REMARK  228  A    between atoms: _580  and  _581
REMARK  229  A    between atoms: _583  and  _585
REMARK  230  A    between atoms: _585  and  _586
REMARK  231  A    between atoms: _585  and  _588
REMARK  232  A    between atoms: _588  and  _589
REMARK  233  A    between atoms: _592  and  _594
REMARK  234  A    between atoms: _594  and  _595
REMARK  235  A    between atoms: _594  and  _597
REMARK  236  A    between atoms: _597  and  _598
REMARK  237  A    between atoms: _608  and  _610
REMARK  238  A    between atoms: _610  and  _611
REMARK  239  A    between atoms: _610  and  _613
REMARK  240  A    between atoms: _613  and  _614
REMARK  241  A    between atoms: _616  and  _618
REMARK  242  A    between atoms: _618  and  _619
REMARK  243  A    between atoms: _618  and  _621
REMARK  244  A    between atoms: _621  and  _622
REMARK  245  A    between atoms: _627  and  _629
REMARK  246  A    between atoms: _629  and  _630
REMARK  247  A    between atoms: _629  and  _632
REMARK  248  A    between atoms: _632  and  _633
REMARK  249  A    between atoms: _639  and  _641
REMARK  250  A    between atoms: _641  and  _642
REMARK  251  A    between atoms: _641  and  _644
REMARK  252  A    between atoms: _644  and  _645
REMARK  253  A    between atoms: _645  and  _646
REMARK  254  A    between atoms: _649  and  _651
REMARK  255  A    between atoms: _651  and  _652
REMARK  256  A    between atoms: _651  and  _654
REMARK  257  A    between atoms: _654  and  _655
REMARK  258  A    between atoms: _665  and  _667
REMARK  259  A    between atoms: _667  and  _668
REMARK  260  A    between atoms: _667  and  _670
REMARK  261  A    between atoms: _670  and  _671
REMARK  262  A    between atoms: _674  and  _676
REMARK  263  A    between atoms: _676  and  _677
REMARK  264  A    between atoms: _676  and  _679
REMARK  265  A    between atoms: _679  and  _680
REMARK  266  A    between atoms: _682  and  _684
REMARK  267  A    between atoms: _684  and  _685
REMARK  268  A    between atoms: _684  and  _687
REMARK  269  A    between atoms: _687  and  _688
REMARK  270  A    between atoms: _690  and  _692
REMARK  271  A    between atoms: _692  and  _693
REMARK  272  A    between atoms: _692  and  _695
REMARK  273  A    between atoms: _695  and  _696
REMARK                            x       y       z     vdW  Elec       q    Type
REMARK                         _______ _______ _______ _____ _____    ______ ____
ROOT
ATOM      1  C   LEU A   1       2.219  -8.554  44.701  0.00  0.00    +0.238 C 
ATOM      2  O   LEU A   1       1.273  -9.097  45.302  0.00  0.00    -0.274 OA
ATOM      3  N   LEU A   2       2.121  -8.151  43.440  0.00  0.00    -0.298 N 
ATOM      4  H   LEU A   2       2.961  -7.781  42.950  0.00  0.00    +0.150 HD
ENDROOT
BRANCH   1   5
ATOM      5  CA  LEU A   1       3.572  -8.256  45.407  0.00  0.00    +0.145 C 
BRANCH   5   6
ATOM      6  N   LEU A   1       4.734  -8.744  44.675  0.00  0.00    -0.238 NA
ATOM      7  H   LEU A   1       5.433  -8.061  44.320  0.00  0.00    +0.142 HD
ENDBRANCH   5   6
BRANCH   5   8
ATOM      8  CB  LEU A   1       3.710  -6.740  45.650  0.00  0.00    +0.026 C 
BRANCH   8   9
ATOM      9  CG  LEU A   1       2.494  -6.057  46.301  0.00  0.00    +0.002 C 
ATOM     10  CD2 LEU A   1       2.411  -6.431  47.818  0.00  0.00    +0.000 C 
ATOM     11  CD1 LEU A   1       2.602  -4.545  46.141  0.00  0.00    +0.000 C 
ENDBRANCH   8   9
ENDBRANCH   5   8
ENDBRANCH   1   5
BRANCH   3  12
ATOM     12  CA  LEU A   2       0.832  -8.223  42.729  0.00  0.00    +0.137 C 
BRANCH  12  13
ATOM     13  C   LEU A   2       0.607  -9.594  42.101  0.00  0.00    +0.227 C 
ATOM     14  O   LEU A   2      -0.525 -10.059  42.019  0.00  0.00    -0.286 OA
ENDBRANCH  12  13
BRANCH  12  15
ATOM     15  CB  LEU A   2       0.701  -7.116  41.658  0.00  0.00    +0.028 C 
BRANCH  15  16
ATOM     16  CG  LEU A   2       0.800  -5.651  42.162  0.00  0.00    +0.002 C 
ATOM     17  CD2 LEU A   2      -0.120  -5.366  43.361  0.00  0.00    +0.000 C 
ATOM     18  CD1 LEU A   2       0.464  -4.690  41.028  0.00  0.00    +0.000 C 
ENDBRANCH  15  16
ENDBRANCH  12  15
ENDBRANCH   3  12
TORSDOF 8
REMARK  Name = ../refined-set-2016/3f5j/3f5j_pocket.pdb
REMARK  273 active torsions:
REMARK  status: ('A' for Active; 'I' for Inactive)
REMARK    1  A    between atoms: _1  and  _3
REMARK    2  A    between atoms: _3  and  _4
REMARK    3  A    between atoms: _3  and  _6
REMARK    4  A    between atoms: _9  and  _11
REMARK    5  A    between atoms: _11  and  _12
REMARK    6  A    between atoms: _11  and  _14
REMARK    7  A    between atoms: _14  and  _15
REMARK    8  A    between atoms: _18  and  _20
REMARK    9  A    between atoms: _20  and  _21
REMARK   10  A    between atoms: _20  and  _23
REMARK   11  A    between atoms: _23  and  _24
REMARK   12  A    between atoms: _26  and  _28
REMARK   13  A    between atoms: _28  and  _29
REMARK   14  A    between atoms: _28  and  _31
REMARK   15  A    between atoms: _31  and  _32
REMARK   16  A    between atoms: _32  and  _33
REMARK   17  A    between atoms: _38  and  _40
REMARK   18  A    between atoms: _40  and  _41
REMARK   19  A    between atoms: _40  and  _43
REMARK   20  A    between atoms: _43  and  _44
REMARK   21  A    between atoms: _44  and  _45
REMARK   22  A    between atoms: _45  and  _46
REMARK   23  A    between atoms: _55  and  _57
REMARK   24  A    between atoms: _57  and  _58
REMARK   25  A    between atoms: _57  and  _60
REMARK   26  A    between atoms: _60  and  _61
REMARK   27  A    between atoms: _63  and  _65
REMARK   28  A    between atoms: _65  and  _66
REMARK   29  A    between atoms: _65  and  _68
REMARK   30  A    between atoms: _68  and  _69
REMARK   31  A    between atoms: _74  and  _76
REMARK   32  A    between atoms: _76  and  _77
REMARK   33  A    between atoms: _76  and  _79
REMARK   34  A    between atoms: _79  and  _80
REMARK   35  A    between atoms: _85  and  _87
REMARK   36  A    between atoms: _87  and  _88
REMARK   37  A    between atoms: _87  and  _90
REMARK   38  A    between atoms: _90  and  _91
REMARK   39  A    between atoms: _96  and  _97
REMARK   40  A    between atoms: _99  and  _101
REMARK   41  A    between atoms: _101  and  _102
REMARK   42  A    between atoms: _101  and  _104
REMARK   43  A    between atoms: _104  and  _105
REMARK   44  A    between atoms: _110  and  _112
REMARK   45  A    between atoms: _112  and  _113
REMARK   46  A    between atoms: _112  and  _115
REMARK   47  A    between atoms: _115  and  _116
REMARK   48  A    between atoms: _116  and  _117
REMARK   49  A    between atoms: _122  and  _124
REMARK   50  A    between atoms: _124  and  _125
REMARK   51  A    between atoms: _124  and  _127
REMARK   52  A    between atoms: _127  and  _128
REMARK   53  A    between atoms: _128  and  _129
REMARK   54  A    between atoms: _129  and  _130
REMARK   55  A    between atoms: _139  and  _141
REMARK   56  A    between atoms: _141  and  _142
REMARK   57  A    between atoms: _141  and  _144
REMARK   58  A    between atoms: _144  and  _145
REMARK   59  A    between atoms: _148  and  _150
REMARK   60  A    between atoms: _150  and  _151
REMARK   61  A    between atoms: _150  and  _153
REMARK   62  A    between atoms: _153  and  _154
REMARK   63  A    between atoms: _157  and  _159
REMARK   64  A    between atoms: _159  and  _160
REMARK   65  A    between atoms: _159  and  _162
REMARK   66  A    between atoms: _162  and  _163
REMARK   67  A    between atoms: _166  and  _168
REMARK   68  A    between atoms: _168  and  _169
REMARK   69  A    between atoms: _168  and  _171
REMARK   70  A    between atoms: _171  and  _172
REMARK   71  A    between atoms: _175  and  _177
REMARK   72  A    between atoms: _177  and  _178
REMARK   73  A    between atoms: _177  and  _180
REMARK   74  A    between atoms: _180  and  _181
REMARK   75  A    between atoms: _181  and  _182
REMARK   76  A    between atoms: _187  and  _189
REMARK   77  A    between atoms: _189  and  _190
REMARK   78  A    between atoms: _189  and  _192
REMARK   79  A    between atoms: _192  and  _193
REMARK   80  A    between atoms: _196  and  _198
REMARK   81  A    between atoms: _198  and  _199
REMARK   82  A    between atoms: _198  and  _201
REMARK   83  A    between atoms: _201  and  _202
REMARK   84  A    between atoms: _207  and  _209
REMARK   85  A    between atoms: _209  and  _210
REMARK   86  A    between atoms: _209  and  _212
REMARK   87  A    between atoms: _215  and  _217
REMARK   88  A    between atoms: _217  and  _218
REMARK   89  A    between atoms: _217  and  _220
REMARK   90  A    between atoms: _220  and  _221
REMARK   91  A    between atoms: _224  and  _226
REMARK   92  A    between atoms: _226  and  _227
REMARK   93  A    between atoms: _226  and  _229
REMARK   94  A    between atoms: _229  and  _230
REMARK   95  A    between atoms: _233  and  _235
REMARK   96  A    between atoms: _235  and  _236
REMARK   97  A    between atoms: _235  and  _238
REMARK   98  A    between atoms: _238  and  _239
REMARK   99  A    between atoms: _245  and  _247
REMARK  100  A    between atoms: _247  and  _248
REMARK  101  A    between atoms: _247  and  _250
REMARK  102  A    between atoms: _250  and  _251
REMARK  103  A    between atoms: _256  and  _258
REMARK  104  A    between atoms: _258  and  _259
REMARK  105  A    between atoms: _258  and  _261
REMARK  106  A    between atoms: _261  and  _262
REMARK  107  A    between atoms: _272  and  _274
REMARK  108  A    between atoms: _274  and  _275
REMARK  109  A    between atoms: _274  and  _277
REMARK  110  A    between atoms: _277  and  _278
REMARK  111  A    between atoms: _283  and  _284
REMARK  112  A    between atoms: _286  and  _288
REMARK  113  A    between atoms: _288  and  _289
REMARK  114  A    between atoms: _288  and  _291
REMARK  115  A    between atoms: _291  and  _292
REMARK  116  A    between atoms: _297  and  _299
REMARK  117  A    between atoms: _299  and  _300
REMARK  118  A    between atoms: _299  and  _302
REMARK  119  A    between atoms: _302  and  _303
REMARK  120  A    between atoms: _308  and  _310
REMARK  121  A    between atoms: _310  and  _311
REMARK  122  A    between atoms: _310  and  _313
REMARK  123  A    between atoms: _313  and  _314
REMARK  124  A    between atoms: _314  and  _315
REMARK  125  A    between atoms: _320  and  _322
REMARK  126  A    between atoms: _322  and  _323
REMARK  127  A    between atoms: _322  and  _325
REMARK  128  A    between atoms: _325  and  _326
REMARK  129  A    between atoms: _331  and  _332
REMARK  130  A    between atoms: _334  and  _336
REMARK  131  A    between atoms: _336  and  _337
REMARK  132  A    between atoms: _336  and  _339
REMARK  133  A    between atoms: _339  and  _340
REMARK  134  A    between atoms: _343  and  _345
REMARK  135  A    between atoms: _345  and  _346
REMARK  136  A    between atoms: _349  and  _351
REMARK  137  A    between atoms: _351  and  _352
REMARK  138  A    between atoms: _351  and  _354
REMARK  139  A    between atoms: _354  and  _355
REMARK  140  A    between atoms: _357  and  _359
REMARK  141  A    between atoms: _359  and  _360
REMARK  142  A    between atoms: _359  and  _362
REMARK  143  A    between atoms: _362  and  _363
REMARK  144  A    between atoms: _363  and  _364
REMARK  145  A    between atoms: _366  and  _368
REMARK  146  A    between atoms: _368  and  _369
REMARK  147  A    between atoms: _368  and  _371
REMARK  148  A    between atoms: _371  and  _372
REMARK  149  A    between atoms: _374  and  _376
REMARK  150  A    between atoms: _376  and  _377
REMARK  151  A    between atoms: _376  and  _379
REMARK  152  A    between atoms: _379  and  _380
REMARK  153  A    between atoms: _385  and  _386
REMARK  154  A    between atoms: _388  and  _390
REMARK  155  A    between atoms: _390  and  _391
REMARK  156  A    between atoms: _390  and  _393
REMARK  157  A    between atoms: _393  and  _394
REMARK  158  A    between atoms: _396  and  _398
REMARK  159  A    between atoms: _398  and  _399
REMARK  160  A    between atoms: _402  and  _404
REMARK  161  A    between atoms: _404  and  _405
REMARK  162  A    between atoms: _404  and  _407
REMARK  163  A    between atoms: _407  and  _408
REMARK  164  A    between atoms: _418  and  _420
REMARK  165  A    between atoms: _420  and  _421
REMARK  166  A    between atoms: _420  and  _423
REMARK  167  A    between atoms: _426  and  _428
REMARK  168  A    between atoms: _428  and  _429
REMARK  169  A    between atoms: _428  and  _431
REMARK  170  A    between atoms: _431  and  _432
REMARK  171  A    between atoms: _435  and  _437
REMARK  172  A    between atoms: _437  and  _438
REMARK  173  A    between atoms: _437  and  _440
REMARK  174  A    between atoms: _440  and  _441
REMARK  175  A    between atoms: _446  and  _447
REMARK  176  A    between atoms: _449  and  _451
REMARK  177  A    between atoms: _451  and  _452
REMARK  178  A    between atoms: _451  and  _454
REMARK  179  A    between atoms: _457  and  _459
REMARK  180  A    between atoms: _459  and  _460
REMARK  181  A    between atoms: _459  and  _462
REMARK  182  A    between atoms: _462  and  _463
REMARK  183  A    between atoms: _469  and  _471
REMARK  184  A    between atoms: _471  and  _472
REMARK  185  A    between atoms: _471  and  _474
REMARK  186  A    between atoms: _474  and  _475
REMARK  187  A    between atoms: _475  and  _476
REMARK  188  A    between atoms: _481  and  _483
REMARK  189  A    between atoms: _483  and  _484
REMARK  190  A    between atoms: _483  and  _486
REMARK  191  A    between atoms: _486  and  _487
REMARK  192  A    between atoms: _489  and  _491
REMARK  193  A    between atoms: _491  and  _492
REMARK  194  A    between atoms: _491  and  _494
REMARK  195  A    between atoms: _494  and  _495
REMARK  196  A    between atoms: _500  and  _502
REMARK  197  A    between atoms: _502  and  _503
REMARK  198  A    between atoms: _502  and  _505
REMARK  199  A    between atoms: _505  and  _506
REMARK  200  A    between atoms: _516  and  _518
REMARK  201  A    between atoms: _518  and  _519
REMARK  202  A    between atoms: _518  and  _521
REMARK  203  A    between atoms: _521  and  _522
REMARK  204  A    between atoms: _525  and  _527
REMARK  205  A    between atoms: _527  and  _528
REMARK  206  A    between atoms: _527  and  _530
REMARK  207  A    between atoms: _530  and  _531
REMARK  208  A    between atoms: _536  and  _537
REMARK  209  A    between atoms: _539  and  _541
REMARK  210  A    between atoms: _541  and  _542
REMARK  211  A    between atoms: _541  and  _544
REMARK  212  A    between atoms: _544  and  _545
REMARK  213  A    between atoms: _548  and  _550
REMARK  214  A    between atoms: _550  and  _551
REMARK  215  A    between atoms: _550  and  _553
REMARK  216  A    between atoms: _553  and  _554
REMARK  217  A    between atoms: _554  and  _555
REMARK  218  A    between atoms: _558  and  _560
REMARK  219  A    between atoms: _560  and  _561
REMARK  220  A    between atoms: _560  and  _563
REMARK  221  A    between atoms: _563  and  _564
REMARK  222  A    between atoms: _569  and  _571
REMARK  223  A    between atoms: _571  and  _572
REMARK  224  A    between atoms: _574  and  _576
REMARK  225  A    between atoms: _576  and  _577
REMARK  226  A    between atoms: _576  and  _579
REMARK  227  A    between atoms: _579  and  _580
REMARK  228  A    between atoms: _580  and  _581
REMARK  229  A    between atoms: _583  and  _585
REMARK  230  A    between atoms: _585  and  _586
REMARK  231  A    between atoms: _585  and  _588
REMARK  232  A    between atoms: _588  and  _589
REMARK  233  A    between atoms: _592  and  _594
REMARK  234  A    between atoms: _594  and  _595
REMARK  235  A    between atoms: _594  and  _597
REMARK  236  A    between atoms: _597  and  _598
REMARK  237  A    between atoms: _608  and  _610
REMARK  238  A    between atoms: _610  and  _611
REMARK  239  A    between atoms: _610  and  _613
REMARK  240  A    between atoms: _613  and  _614
REMARK  241  A    between atoms: _616  and  _618
REMARK  242  A    between atoms: _618  and  _619
REMARK  243  A    between atoms: _618  and  _621
REMARK  244  A    between atoms: _621  and  _622
REMARK  245  A    between atoms: _627  and  _629
REMARK  246  A    between atoms: _629  and  _630
REMARK  247  A    between atoms: _629  and  _632
REMARK  248  A    between atoms: _632  and  _633
REMARK  249  A    between atoms: _639  and  _641
REMARK  250  A    between atoms: _641  and  _642
REMARK  251  A    between atoms: _641  and  _644
REMARK  252  A    between atoms: _644  and  _645
REMARK  253  A    between atoms: _645  and  _646
REMARK  254  A    between atoms: _649  and  _651
REMARK  255  A    between atoms: _651  and  _652
REMARK  256  A    between atoms: _651  and  _654
REMARK  257  A    between atoms: _654  and  _655
REMARK  258  A    between atoms: _665  and  _667
REMARK  259  A    between atoms: _667  and  _668
REMARK  260  A    between atoms: _667  and  _670
REMARK  261  A    between atoms: _670  and  _671
REMARK  262  A    between atoms: _674  and  _676
REMARK  263  A    between atoms: _676  and  _677
REMARK  264  A    between atoms: _676  and  _679
REMARK  265  A    between atoms: _679  and  _680
REMARK  266  A    between atoms: _682  and  _684
REMARK  267  A    between atoms: _684  and  _685
REMARK  268  A    between atoms: _684  and  _687
REMARK  269  A    between atoms: _687  and  _688
REMARK  270  A    between atoms: _690  and  _692
REMARK  271  A    between atoms: _692  and  _693
REMARK  272  A    between atoms: _692  and  _695
REMARK  273  A    between atoms: _695  and  _696
REMARK                            x       y       z     vdW  Elec       q    Type
REMARK                         _______ _______ _______ _____ _____    ______ ____
ROOT
ATOM      1  C   ASP A   1      -0.542 -11.398  47.245  0.00  0.00    +0.239 C 
ATOM      2  O   ASP A   1      -1.395 -12.111  47.795  0.00  0.00    -0.274 OA
ATOM      3  N   GLN A   2      -0.868 -10.336  46.517  0.00  0.00    -0.298 N 
ATOM      4  H   GLN A   2      -0.118  -9.800  46.036  0.00  0.00    +0.150 HD
ENDROOT
BRANCH   1   5
ATOM      5  CA  ASP A   1       0.969 -11.745  47.378  0.00  0.00    +0.156 C 
BRANCH   5   6
ATOM      6  N   ASP A   1       1.498 -12.144  46.059  0.00  0.00    -0.238 NA
ATOM      7  H   ASP A   1       1.743 -11.399  45.377  0.00  0.00    +0.142 HD
ENDBRANCH   5   6
BRANCH   5   8
ATOM      8  CB  ASP A   1       1.818 -10.606  48.029  0.00  0.00    +0.140 C 
BRANCH   8   9
ATOM      9  CG  ASP A   1       1.194 -10.046  49.357  0.00  0.00    +0.367 C 
ATOM     10  OD2 ASP A   1       1.865  -9.312  50.093  0.00  0.00    -0.246 OA
ATOM     11  OD1 ASP A   1       0.020 -10.312  49.671  0.00  0.00    -0.246 OA
ENDBRANCH   8   9
ENDBRANCH   5   8
ENDBRANCH   1   5
BRANCH   3  12
ATOM     12  CA  GLN A   2      -2.250  -9.907  46.378  0.00  0.00    +0.137 C 
BRANCH  12  13
ATOM     13  C   GLN A   2      -2.957 -10.731  45.271  0.00  0.00    +0.227 C 
ATOM     14  O   GLN A   2      -4.188 -10.856  45.270  0.00  0.00    -0.286 OA
ENDBRANCH  12  13
BRANCH  12  15
ATOM     15  CB  GLN A   2      -2.344  -8.423  46.011  0.00  0.00    +0.037 C 
BRANCH  15  16
ATOM     16  CG  GLN A   2      -1.902  -7.499  47.106  0.00  0.00    +0.087 C 
BRANCH  16  17
ATOM     17  CD  GLN A   2      -2.054  -6.030  46.705  0.00  0.00    +0.219 C 
ATOM     18  NE2 GLN A   2      -1.297  -5.178  47.377  0.00  0.00    -0.329 N 
ATOM     19 HE21 GLN A   2      -0.645  -5.527  48.108  0.00  0.00    +0.145 HD
ATOM     20 HE22 GLN A   2      -1.354  -4.160  47.174  0.00  0.00    +0.145 HD
ATOM     21  OE1 GLN A   2      -2.861  -5.665  45.810  0.00  0.00    -0.275 OA
ENDBRANCH  16  17
ENDBRANCH  15  16
ENDBRANCH  12  15
ENDBRANCH   3  12
TORSDOF 9
REMARK  Name = ../refined-set-2016/3f5j/3f5j_pocket.pdb
REMARK  273 active torsions:
REMARK  status: ('A' for Active; 'I' for Inactive)
REMARK    1  A    between atoms: _1  and  _3
REMARK    2  A    between atoms: _3  and  _4
REMARK    3  A    between atoms: _3  and  _6
REMARK    4  A    between atoms: _9  and  _11
REMARK    5  A    between atoms: _11  and  _12
REMARK    6  A    between atoms: _11  and  _14
REMARK    7  A    between atoms: _14  and  _15
REMARK    8  A    between atoms: _18  and  _20
REMARK    9  A    between atoms: _20  and  _21
REMARK   10  A    between atoms: _20  and  _23
REMARK   11  A    between atoms: _23  and  _24
REMARK   12  A    between atoms: _26  and  _28
REMARK   13  A    between atoms: _28  and  _29
REMARK   14  A    between atoms: _28  and  _31
REMARK   15  A    between atoms: _31  and  _32
REMARK   16  A    between atoms: _32  and  _33
REMARK   17  A    between atoms: _38  and  _40
REMARK   18  A    between atoms: _40  and  _41
REMARK   19  A    between atoms: _40  and  _43
REMARK   20  A    between atoms: _43  and  _44
REMARK   21  A    between atoms: _44  and  _45
REMARK   22  A    between atoms: _45  and  _46
REMARK   23  A    between atoms: _55  and  _57
REMARK   24  A    between atoms: _57  and  _58
REMARK   25  A    between atoms: _57  and  _60
REMARK   26  A    between atoms: _60  and  _61
REMARK   27  A    between atoms: _63  and  _65
REMARK   28  A    between atoms: _65  and  _66
REMARK   29  A    between atoms: _65  and  _68
REMARK   30  A    between atoms: _68  and  _69
REMARK   31  A    between atoms: _74  and  _76
REMARK   32  A    between atoms: _76  and  _77
REMARK   33  A    between atoms: _76  and  _79
REMARK   34  A    between atoms: _79  and  _80
REMARK   35  A    between atoms: _85  and  _87
REMARK   36  A    between atoms: _87  and  _88
REMARK   37  A    between atoms: _87  and  _90
REMARK   38  A    between atoms: _90  and  _91
REMARK   39  A    between atoms: _96  and  _97
REMARK   40  A    between atoms: _99  and  _101
REMARK   41  A    between atoms: _101  and  _102
REMARK   42  A    between atoms: _101  and  _104
REMARK   43  A    between atoms: _104  and  _105
REMARK   44  A    between atoms: _110  and  _112
REMARK   45  A    between atoms: _112  and  _113
REMARK   46  A    between atoms: _112  and  _115
REMARK   47  A    between atoms: _115  and  _116
REMARK   48  A    between atoms: _116  and  _117
REMARK   49  A    between atoms: _122  and  _124
REMARK   50  A    between atoms: _124  and  _125
REMARK   51  A    between atoms: _124  and  _127
REMARK   52  A    between atoms: _127  and  _128
REMARK   53  A    between atoms: _128  and  _129
REMARK   54  A    between atoms: _129  and  _130
REMARK   55  A    between atoms: _139  and  _141
REMARK   56  A    between atoms: _141  and  _142
REMARK   57  A    between atoms: _141  and  _144
REMARK   58  A    between atoms: _144  and  _145
REMARK   59  A    between atoms: _148  and  _150
REMARK   60  A    between atoms: _150  and  _151
REMARK   61  A    between atoms: _150  and  _153
REMARK   62  A    between atoms: _153  and  _154
REMARK   63  A    between atoms: _157  and  _159
REMARK   64  A    between atoms: _159  and  _160
REMARK   65  A    between atoms: _159  and  _162
REMARK   66  A    between atoms: _162  and  _163
REMARK   67  A    between atoms: _166  and  _168
REMARK   68  A    between atoms: _168  and  _169
REMARK   69  A    between atoms: _168  and  _171
REMARK   70  A    between atoms: _171  and  _172
REMARK   71  A    between atoms: _175  and  _177
REMARK   72  A    between atoms: _177  and  _178
REMARK   73  A    between atoms: _177  and  _180
REMARK   74  A    between atoms: _180  and  _181
REMARK   75  A    between atoms: _181  and  _182
REMARK   76  A    between atoms: _187  and  _189
REMARK   77  A    between atoms: _189  and  _190
REMARK   78  A    between atoms: _189  and  _192
REMARK   79  A    between atoms: _192  and  _193
REMARK   80  A    between atoms: _196  and  _198
REMARK   81  A    between atoms: _198  and  _199
REMARK   82  A    between atoms: _198  and  _201
REMARK   83  A    between atoms: _201  and  _202
REMARK   84  A    between atoms: _207  and  _209
REMARK   85  A    between atoms: _209  and  _210
REMARK   86  A    between atoms: _209  and  _212
REMARK   87  A    between atoms: _215  and  _217
REMARK   88  A    between atoms: _217  and  _218
REMARK   89  A    between atoms: _217  and  _220
REMARK   90  A    between atoms: _220  and  _221
REMARK   91  A    between atoms: _224  and  _226
REMARK   92  A    between atoms: _226  and  _227
REMARK   93  A    between atoms: _226  and  _229
REMARK   94  A    between atoms: _229  and  _230
REMARK   95  A    between atoms: _233  and  _235
REMARK   96  A    between atoms: _235  and  _236
REMARK   97  A    between atoms: _235  and  _238
REMARK   98  A    between atoms: _238  and  _239
REMARK   99  A    between atoms: _245  and  _247
REMARK  100  A    between atoms: _247  and  _248
REMARK  101  A    between atoms: _247  and  _250
REMARK  102  A    between atoms: _250  and  _251
REMARK  103  A    between atoms: _256  and  _258
REMARK  104  A    between atoms: _258  and  _259
REMARK  105  A    between atoms: _258  and  _261
REMARK  106  A    between atoms: _261  and  _262
REMARK  107  A    between atoms: _272  and  _274
REMARK  108  A    between atoms: _274  and  _275
REMARK  109  A    between atoms: _274  and  _277
REMARK  110  A    between atoms: _277  and  _278
REMARK  111  A    between atoms: _283  and  _284
REMARK  112  A    between atoms: _286  and  _288
REMARK  113  A    between atoms: _288  and  _289
REMARK  114  A    between atoms: _288  and  _291
REMARK  115  A    between atoms: _291  and  _292
REMARK  116  A    between atoms: _297  and  _299
REMARK  117  A    between atoms: _299  and  _300
REMARK  118  A    between atoms: _299  and  _302
REMARK  119  A    between atoms: _302  and  _303
REMARK  120  A    between atoms: _308  and  _310
REMARK  121  A    between atoms: _310  and  _311
REMARK  122  A    between atoms: _310  and  _313
REMARK  123  A    between atoms: _313  and  _314
REMARK  124  A    between atoms: _314  and  _315
REMARK  125  A    between atoms: _320  and  _322
REMARK  126  A    between atoms: _322  and  _323
REMARK  127  A    between atoms: _322  and  _325
REMARK  128  A    between atoms: _325  and  _326
REMARK  129  A    between atoms: _331  and  _332
REMARK  130  A    between atoms: _334  and  _336
REMARK  131  A    between atoms: _336  and  _337
REMARK  132  A    between atoms: _336  and  _339
REMARK  133  A    between atoms: _339  and  _340
REMARK  134  A    between atoms: _343  and  _345
REMARK  135  A    between atoms: _345  and  _346
REMARK  136  A    between atoms: _349  and  _351
REMARK  137  A    between atoms: _351  and  _352
REMARK  138  A    between atoms: _351  and  _354
REMARK  139  A    between atoms: _354  and  _355
REMARK  140  A    between atoms: _357  and  _359
REMARK  141  A    between atoms: _359  and  _360
REMARK  142  A    between atoms: _359  and  _362
REMARK  143  A    between atoms: _362  and  _363
REMARK  144  A    between atoms: _363  and  _364
REMARK  145  A    between atoms: _366  and  _368
REMARK  146  A    between atoms: _368  and  _369
REMARK  147  A    between atoms: _368  and  _371
REMARK  148  A    between atoms: _371  and  _372
REMARK  149  A    between atoms: _374  and  _376
REMARK  150  A    between atoms: _376  and  _377
REMARK  151  A    between atoms: _376  and  _379
REMARK  152  A    between atoms: _379  and  _380
REMARK  153  A    between atoms: _385  and  _386
REMARK  154  A    between atoms: _388  and  _390
REMARK  155  A    between atoms: _390  and  _391
REMARK  156  A    between atoms: _390  and  _393
REMARK  157  A    between atoms: _393  and  _394
REMARK  158  A    between atoms: _396  and  _398
REMARK  159  A    between atoms: _398  and  _399
REMARK  160  A    between atoms: _402  and  _404
REMARK  161  A    between atoms: _404  and  _405
REMARK  162  A    between atoms: _404  and  _407
REMARK  163  A    between atoms: _407  and  _408
REMARK  164  A    between atoms: _418  and  _420
REMARK  165  A    between atoms: _420  and  _421
REMARK  166  A    between atoms: _420  and  _423
REMARK  167  A    between atoms: _426  and  _428
REMARK  168  A    between atoms: _428  and  _429
REMARK  169  A    between atoms: _428  and  _431
REMARK  170  A    between atoms: _431  and  _432
REMARK  171  A    between atoms: _435  and  _437
REMARK  172  A    between atoms: _437  and  _438
REMARK  173  A    between atoms: _437  and  _440
REMARK  174  A    between atoms: _440  and  _441
REMARK  175  A    between atoms: _446  and  _447
REMARK  176  A    between atoms: _449  and  _451
REMARK  177  A    between atoms: _451  and  _452
REMARK  178  A    between atoms: _451  and  _454
REMARK  179  A    between atoms: _457  and  _459
REMARK  180  A    between atoms: _459  and  _460
REMARK  181  A    between atoms: _459  and  _462
REMARK  182  A    between atoms: _462  and  _463
REMARK  183  A    between atoms: _469  and  _471
REMARK  184  A    between atoms: _471  and  _472
REMARK  185  A    between atoms: _471  and  _474
REMARK  186  A    between atoms: _474  and  _475
REMARK  187  A    between atoms: _475  and  _476
REMARK  188  A    between atoms: _481  and  _483
REMARK  189  A    between atoms: _483  and  _484
REMARK  190  A    between atoms: _483  and  _486
REMARK  191  A    between atoms: _486  and  _487
REMARK  192  A    between atoms: _489  and  _491
REMARK  193  A    between atoms: _491  and  _492
REMARK  194  A    between atoms: _491  and  _494
REMARK  195  A    between atoms: _494  and  _495
REMARK  196  A    between atoms: _500  and  _502
REMARK  197  A    between atoms: _502  and  _503
REMARK  198  A    between atoms: _502  and  _505
REMARK  199  A    between atoms: _505  and  _506
REMARK  200  A    between atoms: _516  and  _518
REMARK  201  A    between atoms: _518  and  _519
REMARK  202  A    between atoms: _518  and  _521
REMARK  203  A    between atoms: _521  and  _522
REMARK  204  A    between atoms: _525  and  _527
REMARK  205  A    between atoms: _527  and  _528
REMARK  206  A    between atoms: _527  and  _530
REMARK  207  A    between atoms: _530  and  _531
REMARK  208  A    between atoms: _536  and  _537
REMARK  209  A    between atoms: _539  and  _541
REMARK  210  A    between atoms: _541  and  _542
REMARK  211  A    between atoms: _541  and  _544
REMARK  212  A    between atoms: _544  and  _545
REMARK  213  A    between atoms: _548  and  _550
REMARK  214  A    between atoms: _550  and  _551
REMARK  215  A    between atoms: _550  and  _553
REMARK  216  A    between atoms: _553  and  _554
REMARK  217  A    between atoms: _554  and  _555
REMARK  218  A    between atoms: _558  and  _560
REMARK  219  A    between atoms: _560  and  _561
REMARK  220  A    between atoms: _560  and  _563
REMARK  221  A    between atoms: _563  and  _564
REMARK  222  A    between atoms: _569  and  _571
REMARK  223  A    between atoms: _571  and  _572
REMARK  224  A    between atoms: _574  and  _576
REMARK  225  A    between atoms: _576  and  _577
REMARK  226  A    between atoms: _576  and  _579
REMARK  227  A    between atoms: _579  and  _580
REMARK  228  A    between atoms: _580  and  _581
REMARK  229  A    between atoms: _583  and  _585
REMARK  230  A    between atoms: _585  and  _586
REMARK  231  A    between atoms: _585  and  _588
REMARK  232  A    between atoms: _588  and  _589
REMARK  233  A    between atoms: _592  and  _594
REMARK  234  A    between atoms: _594  and  _595
REMARK  235  A    between atoms: _594  and  _597
REMARK  236  A    between atoms: _597  and  _598
REMARK  237  A    between atoms: _608  and  _610
REMARK  238  A    between atoms: _610  and  _611
REMARK  239  A    between atoms: _610  and  _613
REMARK  240  A    between atoms: _613  and  _614
REMARK  241  A    between atoms: _616  and  _618
REMARK  242  A    between atoms: _618  and  _619
REMARK  243  A    between atoms: _618  and  _621
REMARK  244  A    between atoms: _621  and  _622
REMARK  245  A    between atoms: _627  and  _629
REMARK  246  A    between atoms: _629  and  _630
REMARK  247  A    between atoms: _629  and  _632
REMARK  248  A    between atoms: _632  and  _633
REMARK  249  A    between atoms: _639  and  _641
REMARK  250  A    between atoms: _641  and  _642
REMARK  251  A    between atoms: _641  and  _644
REMARK  252  A    between atoms: _644  and  _645
REMARK  253  A    between atoms: _645  and  _646
REMARK  254  A    between atoms: _649  and  _651
REMARK  255  A    between atoms: _651  and  _652
REMARK  256  A    between atoms: _651  and  _654
REMARK  257  A    between atoms: _654  and  _655
REMARK  258  A    between atoms: _665  and  _667
REMARK  259  A    between atoms: _667  and  _668
REMARK  260  A    between atoms: _667  and  _670
REMARK  261  A    between atoms: _670  and  _671
REMARK  262  A    between atoms: _674  and  _676
REMARK  263  A    between atoms: _676  and  _677
REMARK  264  A    between atoms: _676  and  _679
REMARK  265  A    between atoms: _679  and  _680
REMARK  266  A    between atoms: _682  and  _684
REMARK  267  A    between atoms: _684  and  _685
REMARK  268  A    between atoms: _684  and  _687
REMARK  269  A    between atoms: _687  and  _688
REMARK  270  A    between atoms: _690  and  _692
REMARK  271  A    between atoms: _692  and  _693
REMARK  272  A    between atoms: _692  and  _695
REMARK  273  A    between atoms: _695  and  _696
REMARK                            x       y       z     vdW  Elec       q    Type
REMARK                         _______ _______ _______ _____ _____    ______ ____
ROOT
ATOM      1  C   THR A   1      -3.361  -8.888  39.766  0.00  0.00    +0.241 C 
ATOM      2  N   ASN A   2      -2.107  -9.316  39.578  0.00  0.00    -0.298 N 
ATOM      3  H   ASN A   2      -1.569  -9.657  40.400  0.00  0.00    +0.150 HD
ATOM      4  O   THR A   1      -3.992  -8.268  38.890  0.00  0.00    -0.274 OA
ENDROOT
BRANCH   1   5
ATOM      5  CA  THR A   1      -4.024  -9.149  41.135  0.00  0.00    +0.172 C 
BRANCH   5   6
ATOM      6  N   THR A   1      -3.279 -10.000  42.076  0.00  0.00    -0.236 NA
ATOM      7  H   THR A   1      -2.490  -9.588  42.615  0.00  0.00    +0.142 HD
ENDBRANCH   5   6
BRANCH   5   8
ATOM      8  CB  THR A   1      -4.313  -7.791  41.744  0.00  0.00    +0.135 C 
ATOM      9  CG2 THR A   1      -5.278  -7.899  42.961  0.00  0.00    +0.034 C 
BRANCH   8  10
ATOM     10  OG1 THR A   1      -3.067  -7.197  42.108  0.00  0.00    -0.383 OA
ATOM     11  HG1 THR A   1      -3.232  -6.307  42.509  0.00  0.00    +0.210 HD
ENDBRANCH   8  10
ENDBRANCH   5   8
ENDBRANCH   1   5
BRANCH   2  12
ATOM     12  CA  ASN A   2      -1.455  -9.325  38.255  0.00  0.00    +0.146 C 
BRANCH  12  13
ATOM     13  C   ASN A   2      -1.118 -10.789  37.978  0.00  0.00    +0.227 C 
ATOM     14  O   ASN A   2      -1.026 -11.570  38.917  0.00  0.00    -0.286 OA
ENDBRANCH  12  13
BRANCH  12  15
ATOM     15  CB  ASN A   2      -0.093  -8.568  38.260  0.00  0.00    +0.112 C 
BRANCH  15  16
ATOM     16  CG  ASN A   2      -0.225  -7.057  38.134  0.00  0.00    +0.222 C 
ATOM     17  OD1 ASN A   2      -1.313  -6.475  38.248  0.00  0.00    -0.275 OA
ATOM     18  ND2 ASN A   2       0.902  -6.409  37.921  0.00  0.00    -0.329 N 
ATOM     19 HD21 ASN A   2       0.899  -5.372  37.843  0.00  0.00    +0.145 HD
ATOM     20 HD22 ASN A   2       1.795  -6.934  37.831  0.00  0.00    +0.145 HD
ENDBRANCH  15  16
ENDBRANCH  12  15
ENDBRANCH   2  12
TORSDOF 8
REMARK  Name = ../refined-set-2016/3f5j/3f5j_pocket.pdb
REMARK  273 active torsions:
REMARK  status: ('A' for Active; 'I' for Inactive)
REMARK    1  A    between atoms: _1  and  _3
REMARK    2  A    between atoms: _3  and  _4
REMARK    3  A    between atoms: _3  and  _6
REMARK    4  A    between atoms: _9  and  _11
REMARK    5  A    between atoms: _11  and  _12
REMARK    6  A    between atoms: _11  and  _14
REMARK    7  A    between atoms: _14  and  _15
REMARK    8  A    between atoms: _18  and  _20
REMARK    9  A    between atoms: _20  and  _21
REMARK   10  A    between atoms: _20  and  _23
REMARK   11  A    between atoms: _23  and  _24
REMARK   12  A    between atoms: _26  and  _28
REMARK   13  A    between atoms: _28  and  _29
REMARK   14  A    between atoms: _28  and  _31
REMARK   15  A    between atoms: _31  and  _32
REMARK   16  A    between atoms: _32  and  _33
REMARK   17  A    between atoms: _38  and  _40
REMARK   18  A    between atoms: _40  and  _41
REMARK   19  A    between atoms: _40  and  _43
REMARK   20  A    between atoms: _43  and  _44
REMARK   21  A    between atoms: _44  and  _45
REMARK   22  A    between atoms: _45  and  _46
REMARK   23  A    between atoms: _55  and  _57
REMARK   24  A    between atoms: _57  and  _58
REMARK   25  A    between atoms: _57  and  _60
REMARK   26  A    between atoms: _60  and  _61
REMARK   27  A    between atoms: _63  and  _65
REMARK   28  A    between atoms: _65  and  _66
REMARK   29  A    between atoms: _65  and  _68
REMARK   30  A    between atoms: _68  and  _69
REMARK   31  A    between atoms: _74  and  _76
REMARK   32  A    between atoms: _76  and  _77
REMARK   33  A    between atoms: _76  and  _79
REMARK   34  A    between atoms: _79  and  _80
REMARK   35  A    between atoms: _85  and  _87
REMARK   36  A    between atoms: _87  and  _88
REMARK   37  A    between atoms: _87  and  _90
REMARK   38  A    between atoms: _90  and  _91
REMARK   39  A    between atoms: _96  and  _97
REMARK   40  A    between atoms: _99  and  _101
REMARK   41  A    between atoms: _101  and  _102
REMARK   42  A    between atoms: _101  and  _104
REMARK   43  A    between atoms: _104  and  _105
REMARK   44  A    between atoms: _110  and  _112
REMARK   45  A    between atoms: _112  and  _113
REMARK   46  A    between atoms: _112  and  _115
REMARK   47  A    between atoms: _115  and  _116
REMARK   48  A    between atoms: _116  and  _117
REMARK   49  A    between atoms: _122  and  _124
REMARK   50  A    between atoms: _124  and  _125
REMARK   51  A    between atoms: _124  and  _127
REMARK   52  A    between atoms: _127  and  _128
REMARK   53  A    between atoms: _128  and  _129
REMARK   54  A    between atoms: _129  and  _130
REMARK   55  A    between atoms: _139  and  _141
REMARK   56  A    between atoms: _141  and  _142
REMARK   57  A    between atoms: _141  and  _144
REMARK   58  A    between atoms: _144  and  _145
REMARK   59  A    between atoms: _148  and  _150
REMARK   60  A    between atoms: _150  and  _151
REMARK   61  A    between atoms: _150  and  _153
REMARK   62  A    between atoms: _153  and  _154
REMARK   63  A    between atoms: _157  and  _159
REMARK   64  A    between atoms: _159  and  _160
REMARK   65  A    between atoms: _159  and  _162
REMARK   66  A    between atoms: _162  and  _163
REMARK   67  A    between atoms: _166  and  _168
REMARK   68  A    between atoms: _168  and  _169
REMARK   69  A    between atoms: _168  and  _171
REMARK   70  A    between atoms: _171  and  _172
REMARK   71  A    between atoms: _175  and  _177
REMARK   72  A    between atoms: _177  and  _178
REMARK   73  A    between atoms: _177  and  _180
REMARK   74  A    between atoms: _180  and  _181
REMARK   75  A    between atoms: _181  and  _182
REMARK   76  A    between atoms: _187  and  _189
REMARK   77  A    between atoms: _189  and  _190
REMARK   78  A    between atoms: _189  and  _192
REMARK   79  A    between atoms: _192  and  _193
REMARK   80  A    between atoms: _196  and  _198
REMARK   81  A    between atoms: _198  and  _199
REMARK   82  A    between atoms: _198  and  _201
REMARK   83  A    between atoms: _201  and  _202
REMARK   84  A    between atoms: _207  and  _209
REMARK   85  A    between atoms: _209  and  _210
REMARK   86  A    between atoms: _209  and  _212
REMARK   87  A    between atoms: _215  and  _217
REMARK   88  A    between atoms: _217  and  _218
REMARK   89  A    between atoms: _217  and  _220
REMARK   90  A    between atoms: _220  and  _221
REMARK   91  A    between atoms: _224  and  _226
REMARK   92  A    between atoms: _226  and  _227
REMARK   93  A    between atoms: _226  and  _229
REMARK   94  A    between atoms: _229  and  _230
REMARK   95  A    between atoms: _233  and  _235
REMARK   96  A    between atoms: _235  and  _236
REMARK   97  A    between atoms: _235  and  _238
REMARK   98  A    between atoms: _238  and  _239
REMARK   99  A    between atoms: _245  and  _247
REMARK  100  A    between atoms: _247  and  _248
REMARK  101  A    between atoms: _247  and  _250
REMARK  102  A    between atoms: _250  and  _251
REMARK  103  A    between atoms: _256  and  _258
REMARK  104  A    between atoms: _258  and  _259
REMARK  105  A    between atoms: _258  and  _261
REMARK  106  A    between atoms: _261  and  _262
REMARK  107  A    between atoms: _272  and  _274
REMARK  108  A    between atoms: _274  and  _275
REMARK  109  A    between atoms: _274  and  _277
REMARK  110  A    between atoms: _277  and  _278
REMARK  111  A    between atoms: _283  and  _284
REMARK  112  A    between atoms: _286  and  _288
REMARK  113  A    between atoms: _288  and  _289
REMARK  114  A    between atoms: _288  and  _291
REMARK  115  A    between atoms: _291  and  _292
REMARK  116  A    between atoms: _297  and  _299
REMARK  117  A    between atoms: _299  and  _300
REMARK  118  A    between atoms: _299  and  _302
REMARK  119  A    between atoms: _302  and  _303
REMARK  120  A    between atoms: _308  and  _310
REMARK  121  A    between atoms: _310  and  _311
REMARK  122  A    between atoms: _310  and  _313
REMARK  123  A    between atoms: _313  and  _314
REMARK  124  A    between atoms: _314  and  _315
REMARK  125  A    between atoms: _320  and  _322
REMARK  126  A    between atoms: _322  and  _323
REMARK  127  A    between atoms: _322  and  _325
REMARK  128  A    between atoms: _325  and  _326
REMARK  129  A    between atoms: _331  and  _332
REMARK  130  A    between atoms: _334  and  _336
REMARK  131  A    between atoms: _336  and  _337
REMARK  132  A    between atoms: _336  and  _339
REMARK  133  A    between atoms: _339  and  _340
REMARK  134  A    between atoms: _343  and  _345
REMARK  135  A    between atoms: _345  and  _346
REMARK  136  A    between atoms: _349  and  _351
REMARK  137  A    between atoms: _351  and  _352
REMARK  138  A    between atoms: _351  and  _354
REMARK  139  A    between atoms: _354  and  _355
REMARK  140  A    between atoms: _357  and  _359
REMARK  141  A    between atoms: _359  and  _360
REMARK  142  A    between atoms: _359  and  _362
REMARK  143  A    between atoms: _362  and  _363
REMARK  144  A    between atoms: _363  and  _364
REMARK  145  A    between atoms: _366  and  _368
REMARK  146  A    between atoms: _368  and  _369
REMARK  147  A    between atoms: _368  and  _371
REMARK  148  A    between atoms: _371  and  _372
REMARK  149  A    between atoms: _374  and  _376
REMARK  150  A    between atoms: _376  and  _377
REMARK  151  A    between atoms: _376  and  _379
REMARK  152  A    between atoms: _379  and  _380
REMARK  153  A    between atoms: _385  and  _386
REMARK  154  A    between atoms: _388  and  _390
REMARK  155  A    between atoms: _390  and  _391
REMARK  156  A    between atoms: _390  and  _393
REMARK  157  A    between atoms: _393  and  _394
REMARK  158  A    between atoms: _396  and  _398
REMARK  159  A    between atoms: _398  and  _399
REMARK  160  A    between atoms: _402  and  _404
REMARK  161  A    between atoms: _404  and  _405
REMARK  162  A    between atoms: _404  and  _407
REMARK  163  A    between atoms: _407  and  _408
REMARK  164  A    between atoms: _418  and  _420
REMARK  165  A    between atoms: _420  and  _421
REMARK  166  A    between atoms: _420  and  _423
REMARK  167  A    between atoms: _426  and  _428
REMARK  168  A    between atoms: _428  and  _429
REMARK  169  A    between atoms: _428  and  _431
REMARK  170  A    between atoms: _431  and  _432
REMARK  171  A    between atoms: _435  and  _437
REMARK  172  A    between atoms: _437  and  _438
REMARK  173  A    between atoms: _437  and  _440
REMARK  174  A    between atoms: _440  and  _441
REMARK  175  A    between atoms: _446  and  _447
REMARK  176  A    between atoms: _449  and  _451
REMARK  177  A    between atoms: _451  and  _452
REMARK  178  A    between atoms: _451  and  _454
REMARK  179  A    between atoms: _457  and  _459
REMARK  180  A    between atoms: _459  and  _460
REMARK  181  A    between atoms: _459  and  _462
REMARK  182  A    between atoms: _462  and  _463
REMARK  183  A    between atoms: _469  and  _471
REMARK  184  A    between atoms: _471  and  _472
REMARK  185  A    between atoms: _471  and  _474
REMARK  186  A    between atoms: _474  and  _475
REMARK  187  A    between atoms: _475  and  _476
REMARK  188  A    between atoms: _481  and  _483
REMARK  189  A    between atoms: _483  and  _484
REMARK  190  A    between atoms: _483  and  _486
REMARK  191  A    between atoms: _486  and  _487
REMARK  192  A    between atoms: _489  and  _491
REMARK  193  A    between atoms: _491  and  _492
REMARK  194  A    between atoms: _491  and  _494
REMARK  195  A    between atoms: _494  and  _495
REMARK  196  A    between atoms: _500  and  _502
REMARK  197  A    between atoms: _502  and  _503
REMARK  198  A    between atoms: _502  and  _505
REMARK  199  A    between atoms: _505  and  _506
REMARK  200  A    between atoms: _516  and  _518
REMARK  201  A    between atoms: _518  and  _519
REMARK  202  A    between atoms: _518  and  _521
REMARK  203  A    between atoms: _521  and  _522
REMARK  204  A    between atoms: _525  and  _527
REMARK  205  A    between atoms: _527  and  _528
REMARK  206  A    between atoms: _527  and  _530
REMARK  207  A    between atoms: _530  and  _531
REMARK  208  A    between atoms: _536  and  _537
REMARK  209  A    between atoms: _539  and  _541
REMARK  210  A    between atoms: _541  and  _542
REMARK  211  A    between atoms: _541  and  _544
REMARK  212  A    between atoms: _544  and  _545
REMARK  213  A    between atoms: _548  and  _550
REMARK  214  A    between atoms: _550  and  _551
REMARK  215  A    between atoms: _550  and  _553
REMARK  216  A    between atoms: _553  and  _554
REMARK  217  A    between atoms: _554  and  _555
REMARK  218  A    between atoms: _558  and  _560
REMARK  219  A    between atoms: _560  and  _561
REMARK  220  A    between atoms: _560  and  _563
REMARK  221  A    between atoms: _563  and  _564
REMARK  222  A    between atoms: _569  and  _571
REMARK  223  A    between atoms: _571  and  _572
REMARK  224  A    between atoms: _574  and  _576
REMARK  225  A    between atoms: _576  and  _577
REMARK  226  A    between atoms: _576  and  _579
REMARK  227  A    between atoms: _579  and  _580
REMARK  228  A    between atoms: _580  and  _581
REMARK  229  A    between atoms: _583  and  _585
REMARK  230  A    between atoms: _585  and  _586
REMARK  231  A    between atoms: _585  and  _588
REMARK  232  A    between atoms: _588  and  _589
REMARK  233  A    between atoms: _592  and  _594
REMARK  234  A    between atoms: _594  and  _595
REMARK  235  A    between atoms: _594  and  _597
REMARK  236  A    between atoms: _597  and  _598
REMARK  237  A    between atoms: _608  and  _610
REMARK  238  A    between atoms: _610  and  _611
REMARK  239  A    between atoms: _610  and  _613
REMARK  240  A    between atoms: _613  and  _614
REMARK  241  A    between atoms: _616  and  _618
REMARK  242  A    between atoms: _618  and  _619
REMARK  243  A    between atoms: _618  and  _621
REMARK  244  A    between atoms: _621  and  _622
REMARK  245  A    between atoms: _627  and  _629
REMARK  246  A    between atoms: _629  and  _630
REMARK  247  A    between atoms: _629  and  _632
REMARK  248  A    between atoms: _632  and  _633
REMARK  249  A    between atoms: _639  and  _641
REMARK  250  A    between atoms: _641  and  _642
REMARK  251  A    between atoms: _641  and  _644
REMARK  252  A    between atoms: _644  and  _645
REMARK  253  A    between atoms: _645  and  _646
REMARK  254  A    between atoms: _649  and  _651
REMARK  255  A    between atoms: _651  and  _652
REMARK  256  A    between atoms: _651  and  _654
REMARK  257  A    between atoms: _654  and  _655
REMARK  258  A    between atoms: _665  and  _667
REMARK  259  A    between atoms: _667  and  _668
REMARK  260  A    between atoms: _667  and  _670
REMARK  261  A    between atoms: _670  and  _671
REMARK  262  A    between atoms: _674  and  _676
REMARK  263  A    between atoms: _676  and  _677
REMARK  264  A    between atoms: _676  and  _679
REMARK  265  A    between atoms: _679  and  _680
REMARK  266  A    between atoms: _682  and  _684
REMARK  267  A    between atoms: _684  and  _685
REMARK  268  A    between atoms: _684  and  _687
REMARK  269  A    between atoms: _687  and  _688
REMARK  270  A    between atoms: _690  and  _692
REMARK  271  A    between atoms: _692  and  _693
REMARK  272  A    between atoms: _692  and  _695
REMARK  273  A    between atoms: _695  and  _696
REMARK                            x       y       z     vdW  Elec       q    Type
REMARK                         _______ _______ _______ _____ _____    ______ ____
ROOT
ATOM      1  C   PHE A   4      10.153   4.042  45.719  0.00  0.00    +0.241 C 
ATOM      2  N   ASN A   5       9.147   3.874  46.570  0.00  0.00    -0.297 N 
ATOM      3  H   ASN A   5       8.883   2.924  46.902  0.00  0.00    +0.150 HD
ATOM      4  O   PHE A   4      10.329   5.065  45.095  0.00  0.00    -0.273 OA
ENDROOT
BRANCH   2   5
ATOM      5  CA  ASN A   5       8.423   5.049  47.027  0.00  0.00    +0.158 C 
BRANCH   5   6
ATOM      6  C   ASN A   5       8.899   5.424  48.411  0.00  0.00    +0.241 C 
ATOM      7  O   ASN A   5       9.336   4.564  49.166  0.00  0.00    -0.273 OA
ATOM      8  N   TRP A   6       8.874   6.711  48.697  0.00  0.00    -0.297 N 
ATOM      9  H   TRP A   6       8.456   7.377  48.016  0.00  0.00    +0.150 HD
BRANCH   8  10
ATOM     10  CA  TRP A   6       9.423   7.221  49.955  0.00  0.00    +0.153 C 
BRANCH  10  11
ATOM     11  C   TRP A   6       8.475   6.950  51.118  0.00  0.00    +0.241 C 
ATOM     12  N   TYR A   7       9.054   6.672  52.286  0.00  0.00    -0.298 N 
ATOM     13  H   TYR A   7      10.092   6.613  52.324  0.00  0.00    +0.150 HD
ATOM     14  O   TRP A   6       7.242   6.940  50.949  0.00  0.00    -0.273 OA
BRANCH  12  15
ATOM     15  CA  TYR A   7       8.279   6.441  53.545  0.00  0.00    +0.141 C 
BRANCH  15  16
ATOM     16  C   TYR A   7       8.827   7.414  54.567  0.00  0.00    +0.227 C 
ATOM     17  O   TYR A   7      10.039   7.463  54.789  0.00  0.00    -0.286 OA
ENDBRANCH  15  16
BRANCH  15  18
ATOM     18  CB  TYR A   7       8.413   4.995  54.055  0.00  0.00    +0.054 C 
BRANCH  18  19
ATOM     19  CG  TYR A   7       7.831   3.978  53.111  0.00  0.00    -0.020 A 
ATOM     20  CD2 TYR A   7       6.443   3.802  53.009  0.00  0.00    -0.001 A 
ATOM     21  CE2 TYR A   7       5.907   2.879  52.128  0.00  0.00    +0.036 A 
ATOM     22  CZ  TYR A   7       6.772   2.106  51.345  0.00  0.00    +0.134 A 
ATOM     23  CE1 TYR A   7       8.137   2.258  51.432  0.00  0.00    +0.036 A 
ATOM     24  CD1 TYR A   7       8.663   3.179  52.315  0.00  0.00    -0.001 A 
BRANCH  22  25
ATOM     25  OH  TYR A   7       6.250   1.192  50.468  0.00  0.00    -0.506 OA
ATOM     26  HH  TYR A   7       5.675   1.658  49.811  0.00  0.00    +0.292 HD
ENDBRANCH  22  25
ENDBRANCH  18  19
ENDBRANCH  15  18
ENDBRANCH  12  15
ENDBRANCH  10  11
BRANCH  10  27
ATOM     27  CB  TRP A   6       9.756   8.719  49.856  0.00  0.00    +0.057 C 
BRANCH  27  28
ATOM     28  CG  TRP A   6      10.378   9.236  51.146  0.00  0.00    -0.002 A 
ATOM     29  CD1 TRP A   6       9.882  10.210  52.001  0.00  0.00    +0.068 A 
ATOM     30  NE1 TRP A   6      10.754  10.391  53.076  0.00  0.00    -0.352 N 
ATOM     31  HE1 TRP A   6      10.637  11.079  53.847  0.00  0.00    +0.166 HD
ATOM     32  CE2 TRP A   6      11.793   9.503  52.939  0.00  0.00    +0.056 A 
ATOM     33  CZ2 TRP A   6      12.916   9.293  53.772  0.00  0.00    +0.017 A 
ATOM     34  CH2 TRP A   6      13.809   8.320  53.398  0.00  0.00    +0.001 A 
ATOM     35  CZ3 TRP A   6      13.614   7.553  52.211  0.00  0.00    +0.000 A 
ATOM     36  CE3 TRP A   6      12.515   7.772  51.383  0.00  0.00    +0.001 A 
ATOM     37  CD2 TRP A   6      11.581   8.755  51.746  0.00  0.00    +0.013 A 
ENDBRANCH  27  28
ENDBRANCH  10  27
ENDBRANCH   8  10
ENDBRANCH   5   6
BRANCH   5  38
ATOM     38  CB  ASN A   5       6.940   4.825  46.981  0.00  0.00    +0.114 C 
BRANCH  38  39
ATOM     39  CG  ASN A   5       6.426   4.645  45.554  0.00  0.00    +0.222 C 
ATOM     40  ND2 ASN A   5       5.461   3.756  45.416  0.00  0.00    -0.329 N 
ATOM     41 HD21 ASN A   5       5.093   3.255  46.249  0.00  0.00    +0.145 HD
ATOM     42 HD22 ASN A   5       5.069   3.556  44.474  0.00  0.00    +0.145 HD
ATOM     43  OD1 ASN A   5       6.911   5.281  44.588  0.00  0.00    -0.275 OA
ENDBRANCH  38  39
ENDBRANCH   5  38
ENDBRANCH   2   5
BRANCH   1  44
ATOM     44  CA  PHE A   4      11.089   2.870  45.519  0.00  0.00    +0.153 C 
BRANCH  44  47
ATOM     45  C   ASP A   3      10.967   1.120  43.903  0.00  0.00    +0.241 C 
ATOM     46  O   ASP A   3      11.421   0.292  44.696  0.00  0.00    -0.273 OA
ATOM     47  N   PHE A   4      10.866   2.409  44.192  0.00  0.00    -0.297 N 
ATOM     48  H   PHE A   4      10.622   3.088  43.443  0.00  0.00    +0.150 HD
BRANCH  45  49
ATOM     49  CA  ASP A   3      10.568   0.753  42.482  0.00  0.00    +0.160 C 
BRANCH  49  51
ATOM     50  C   LEU A   2      12.677  -0.004  41.578  0.00  0.00    +0.241 C 
ATOM     51  N   ASP A   3      11.449  -0.330  41.996  0.00  0.00    -0.297 N 
ATOM     52  H   ASP A   3      11.123  -1.318  41.980  0.00  0.00    +0.150 HD
ATOM     53  O   LEU A   2      13.028   1.170  41.464  0.00  0.00    -0.273 OA
BRANCH  50  54
ATOM     54  CA  LEU A   2      13.664  -1.156  41.257  0.00  0.00    +0.149 C 
BRANCH  54  56
ATOM     55  C   VAL A   1      14.345  -1.741  38.982  0.00  0.00    +0.238 C 
ATOM     56  N   LEU A   2      14.400  -0.900  40.017  0.00  0.00    -0.297 N 
ATOM     57  H   LEU A   2      14.981  -0.041  39.941  0.00  0.00    +0.150 HD
ATOM     58  O   VAL A   1      13.643  -2.766  38.954  0.00  0.00    -0.274 OA
BRANCH  55  59
ATOM     59  CA  VAL A   1      15.186  -1.359  37.791  0.00  0.00    +0.145 C 
BRANCH  59  60
ATOM     60  CB  VAL A   1      14.269  -0.952  36.558  0.00  0.00    +0.025 C 
ATOM     61  CG2 VAL A   1      13.187   0.052  36.981  0.00  0.00    +0.002 C 
ATOM     62  CG1 VAL A   1      15.141  -0.296  35.471  0.00  0.00    +0.002 C 
ENDBRANCH  59  60
BRANCH  59  63
ATOM     63  N   VAL A   1      16.117  -2.419  37.441  0.00  0.00    -0.238 NA
ATOM     64  H   VAL A   1      15.752  -3.293  37.012  0.00  0.00    +0.142 HD
ENDBRANCH  59  63
ENDBRANCH  55  59
ENDBRANCH  54  56
BRANCH  54  65
ATOM     65  CB  LEU A   2      14.677  -1.357  42.405  0.00  0.00    +0.029 C 
BRANCH  65  66
ATOM     66  CG  LEU A   2      15.828  -2.400  42.215  0.00  0.00    +0.002 C 
ATOM     67  CD2 LEU A   2      16.865  -2.280  43.338  0.00  0.00    +0.000 C 
ATOM     68  CD1 LEU A   2      15.278  -3.867  42.101  0.00  0.00    +0.000 C 
ENDBRANCH  65  66
ENDBRANCH  54  65
ENDBRANCH  50  54
ENDBRANCH  49  51
BRANCH  49  69
ATOM     69  CB  ASP A   3       9.094   0.379  42.403  0.00  0.00    +0.143 C 
BRANCH  69  70
ATOM     70  CG  ASP A   3       8.788  -0.940  43.111  0.00  0.00    +0.367 C 
ATOM     71  OD2 ASP A   3       8.066  -0.913  44.132  0.00  0.00    -0.246 OA
ATOM     72  OD1 ASP A   3       9.248  -1.986  42.626  0.00  0.00    -0.246 OA
ENDBRANCH  69  70
ENDBRANCH  49  69
ENDBRANCH  45  49
ENDBRANCH  44  47
BRANCH  44  73
ATOM     73  CB  PHE A   4      12.566   3.267  45.707  0.00  0.00    +0.055 C 
BRANCH  73  74
ATOM     74  CG  PHE A   4      12.950   3.668  47.129  0.00  0.00    -0.020 A 
ATOM     75  CD2 PHE A   4      12.168   3.319  48.233  0.00  0.00    -0.004 A 
ATOM     76  CE2 PHE A   4      12.541   3.698  49.564  0.00  0.00    -0.000 A 
ATOM     77  CZ  PHE A   4      13.726   4.437  49.753  0.00  0.00    -0.000 A 
ATOM     78  CE1 PHE A   4      14.519   4.773  48.639  0.00  0.00    -0.000 A 
ATOM     79  CD1 PHE A   4      14.142   4.363  47.345  0.00  0.00    -0.004 A 
ENDBRANCH  73  74
ENDBRANCH  44  73
ENDBRANCH   1  44
TORSDOF 28
REMARK  Name = ../refined-set-2016/3f5j/3f5j_pocket.pdb
REMARK  273 active torsions:
REMARK  status: ('A' for Active; 'I' for Inactive)
REMARK    1  A    between atoms: _1  and  _3
REMARK    2  A    between atoms: _3  and  _4
REMARK    3  A    between atoms: _3  and  _6
REMARK    4  A    between atoms: _9  and  _11
REMARK    5  A    between atoms: _11  and  _12
REMARK    6  A    between atoms: _11  and  _14
REMARK    7  A    between atoms: _14  and  _15
REMARK    8  A    between atoms: _18  and  _20
REMARK    9  A    between atoms: _20  and  _21
REMARK   10  A    between atoms: _20  and  _23
REMARK   11  A    between atoms: _23  and  _24
REMARK   12  A    between atoms: _26  and  _28
REMARK   13  A    between atoms: _28  and  _29
REMARK   14  A    between atoms: _28  and  _31
REMARK   15  A    between atoms: _31  and  _32
REMARK   16  A    between atoms: _32  and  _33
REMARK   17  A    between atoms: _38  and  _40
REMARK   18  A    between atoms: _40  and  _41
REMARK   19  A    between atoms: _40  and  _43
REMARK   20  A    between atoms: _43  and  _44
REMARK   21  A    between atoms: _44  and  _45
REMARK   22  A    between atoms: _45  and  _46
REMARK   23  A    between atoms: _55  and  _57
REMARK   24  A    between atoms: _57  and  _58
REMARK   25  A    between atoms: _57  and  _60
REMARK   26  A    between atoms: _60  and  _61
REMARK   27  A    between atoms: _63  and  _65
REMARK   28  A    between atoms: _65  and  _66
REMARK   29  A    between atoms: _65  and  _68
REMARK   30  A    between atoms: _68  and  _69
REMARK   31  A    between atoms: _74  and  _76
REMARK   32  A    between atoms: _76  and  _77
REMARK   33  A    between atoms: _76  and  _79
REMARK   34  A    between atoms: _79  and  _80
REMARK   35  A    between atoms: _85  and  _87
REMARK   36  A    between atoms: _87  and  _88
REMARK   37  A    between atoms: _87  and  _90
REMARK   38  A    between atoms: _90  and  _91
REMARK   39  A    between atoms: _96  and  _97
REMARK   40  A    between atoms: _99  and  _101
REMARK   41  A    between atoms: _101  and  _102
REMARK   42  A    between atoms: _101  and  _104
REMARK   43  A    between atoms: _104  and  _105
REMARK   44  A    between atoms: _110  and  _112
REMARK   45  A    between atoms: _112  and  _113
REMARK   46  A    between atoms: _112  and  _115
REMARK   47  A    between atoms: _115  and  _116
REMARK   48  A    between atoms: _116  and  _117
REMARK   49  A    between atoms: _122  and  _124
REMARK   50  A    between atoms: _124  and  _125
REMARK   51  A    between atoms: _124  and  _127
REMARK   52  A    between atoms: _127  and  _128
REMARK   53  A    between atoms: _128  and  _129
REMARK   54  A    between atoms: _129  and  _130
REMARK   55  A    between atoms: _139  and  _141
REMARK   56  A    between atoms: _141  and  _142
REMARK   57  A    between atoms: _141  and  _144
REMARK   58  A    between atoms: _144  and  _145
REMARK   59  A    between atoms: _148  and  _150
REMARK   60  A    between atoms: _150  and  _151
REMARK   61  A    between atoms: _150  and  _153
REMARK   62  A    between atoms: _153  and  _154
REMARK   63  A    between atoms: _157  and  _159
REMARK   64  A    between atoms: _159  and  _160
REMARK   65  A    between atoms: _159  and  _162
REMARK   66  A    between atoms: _162  and  _163
REMARK   67  A    between atoms: _166  and  _168
REMARK   68  A    between atoms: _168  and  _169
REMARK   69  A    between atoms: _168  and  _171
REMARK   70  A    between atoms: _171  and  _172
REMARK   71  A    between atoms: _175  and  _177
REMARK   72  A    between atoms: _177  and  _178
REMARK   73  A    between atoms: _177  and  _180
REMARK   74  A    between atoms: _180  and  _181
REMARK   75  A    between atoms: _181  and  _182
REMARK   76  A    between atoms: _187  and  _189
REMARK   77  A    between atoms: _189  and  _190
REMARK   78  A    between atoms: _189  and  _192
REMARK   79  A    between atoms: _192  and  _193
REMARK   80  A    between atoms: _196  and  _198
REMARK   81  A    between atoms: _198  and  _199
REMARK   82  A    between atoms: _198  and  _201
REMARK   83  A    between atoms: _201  and  _202
REMARK   84  A    between atoms: _207  and  _209
REMARK   85  A    between atoms: _209  and  _210
REMARK   86  A    between atoms: _209  and  _212
REMARK   87  A    between atoms: _215  and  _217
REMARK   88  A    between atoms: _217  and  _218
REMARK   89  A    between atoms: _217  and  _220
REMARK   90  A    between atoms: _220  and  _221
REMARK   91  A    between atoms: _224  and  _226
REMARK   92  A    between atoms: _226  and  _227
REMARK   93  A    between atoms: _226  and  _229
REMARK   94  A    between atoms: _229  and  _230
REMARK   95  A    between atoms: _233  and  _235
REMARK   96  A    between atoms: _235  and  _236
REMARK   97  A    between atoms: _235  and  _238
REMARK   98  A    between atoms: _238  and  _239
REMARK   99  A    between atoms: _245  and  _247
REMARK  100  A    between atoms: _247  and  _248
REMARK  101  A    between atoms: _247  and  _250
REMARK  102  A    between atoms: _250  and  _251
REMARK  103  A    between atoms: _256  and  _258
REMARK  104  A    between atoms: _258  and  _259
REMARK  105  A    between atoms: _258  and  _261
REMARK  106  A    between atoms: _261  and  _262
REMARK  107  A    between atoms: _272  and  _274
REMARK  108  A    between atoms: _274  and  _275
REMARK  109  A    between atoms: _274  and  _277
REMARK  110  A    between atoms: _277  and  _278
REMARK  111  A    between atoms: _283  and  _284
REMARK  112  A    between atoms: _286  and  _288
REMARK  113  A    between atoms: _288  and  _289
REMARK  114  A    between atoms: _288  and  _291
REMARK  115  A    between atoms: _291  and  _292
REMARK  116  A    between atoms: _297  and  _299
REMARK  117  A    between atoms: _299  and  _300
REMARK  118  A    between atoms: _299  and  _302
REMARK  119  A    between atoms: _302  and  _303
REMARK  120  A    between atoms: _308  and  _310
REMARK  121  A    between atoms: _310  and  _311
REMARK  122  A    between atoms: _310  and  _313
REMARK  123  A    between atoms: _313  and  _314
REMARK  124  A    between atoms: _314  and  _315
REMARK  125  A    between atoms: _320  and  _322
REMARK  126  A    between atoms: _322  and  _323
REMARK  127  A    between atoms: _322  and  _325
REMARK  128  A    between atoms: _325  and  _326
REMARK  129  A    between atoms: _331  and  _332
REMARK  130  A    between atoms: _334  and  _336
REMARK  131  A    between atoms: _336  and  _337
REMARK  132  A    between atoms: _336  and  _339
REMARK  133  A    between atoms: _339  and  _340
REMARK  134  A    between atoms: _343  and  _345
REMARK  135  A    between atoms: _345  and  _346
REMARK  136  A    between atoms: _349  and  _351
REMARK  137  A    between atoms: _351  and  _352
REMARK  138  A    between atoms: _351  and  _354
REMARK  139  A    between atoms: _354  and  _355
REMARK  140  A    between atoms: _357  and  _359
REMARK  141  A    between atoms: _359  and  _360
REMARK  142  A    between atoms: _359  and  _362
REMARK  143  A    between atoms: _362  and  _363
REMARK  144  A    between atoms: _363  and  _364
REMARK  145  A    between atoms: _366  and  _368
REMARK  146  A    between atoms: _368  and  _369
REMARK  147  A    between atoms: _368  and  _371
REMARK  148  A    between atoms: _371  and  _372
REMARK  149  A    between atoms: _374  and  _376
REMARK  150  A    between atoms: _376  and  _377
REMARK  151  A    between atoms: _376  and  _379
REMARK  152  A    between atoms: _379  and  _380
REMARK  153  A    between atoms: _385  and  _386
REMARK  154  A    between atoms: _388  and  _390
REMARK  155  A    between atoms: _390  and  _391
REMARK  156  A    between atoms: _390  and  _393
REMARK  157  A    between atoms: _393  and  _394
REMARK  158  A    between atoms: _396  and  _398
REMARK  159  A    between atoms: _398  and  _399
REMARK  160  A    between atoms: _402  and  _404
REMARK  161  A    between atoms: _404  and  _405
REMARK  162  A    between atoms: _404  and  _407
REMARK  163  A    between atoms: _407  and  _408
REMARK  164  A    between atoms: _418  and  _420
REMARK  165  A    between atoms: _420  and  _421
REMARK  166  A    between atoms: _420  and  _423
REMARK  167  A    between atoms: _426  and  _428
REMARK  168  A    between atoms: _428  and  _429
REMARK  169  A    between atoms: _428  and  _431
REMARK  170  A    between atoms: _431  and  _432
REMARK  171  A    between atoms: _435  and  _437
REMARK  172  A    between atoms: _437  and  _438
REMARK  173  A    between atoms: _437  and  _440
REMARK  174  A    between atoms: _440  and  _441
REMARK  175  A    between atoms: _446  and  _447
REMARK  176  A    between atoms: _449  and  _451
REMARK  177  A    between atoms: _451  and  _452
REMARK  178  A    between atoms: _451  and  _454
REMARK  179  A    between atoms: _457  and  _459
REMARK  180  A    between atoms: _459  and  _460
REMARK  181  A    between atoms: _459  and  _462
REMARK  182  A    between atoms: _462  and  _463
REMARK  183  A    between atoms: _469  and  _471
REMARK  184  A    between atoms: _471  and  _472
REMARK  185  A    between atoms: _471  and  _474
REMARK  186  A    between atoms: _474  and  _475
REMARK  187  A    between atoms: _475  and  _476
REMARK  188  A    between atoms: _481  and  _483
REMARK  189  A    between atoms: _483  and  _484
REMARK  190  A    between atoms: _483  and  _486
REMARK  191  A    between atoms: _486  and  _487
REMARK  192  A    between atoms: _489  and  _491
REMARK  193  A    between atoms: _491  and  _492
REMARK  194  A    between atoms: _491  and  _494
REMARK  195  A    between atoms: _494  and  _495
REMARK  196  A    between atoms: _500  and  _502
REMARK  197  A    between atoms: _502  and  _503
REMARK  198  A    between atoms: _502  and  _505
REMARK  199  A    between atoms: _505  and  _506
REMARK  200  A    between atoms: _516  and  _518
REMARK  201  A    between atoms: _518  and  _519
REMARK  202  A    between atoms: _518  and  _521
REMARK  203  A    between atoms: _521  and  _522
REMARK  204  A    between atoms: _525  and  _527
REMARK  205  A    between atoms: _527  and  _528
REMARK  206  A    between atoms: _527  and  _530
REMARK  207  A    between atoms: _530  and  _531
REMARK  208  A    between atoms: _536  and  _537
REMARK  209  A    between atoms: _539  and  _541
REMARK  210  A    between atoms: _541  and  _542
REMARK  211  A    between atoms: _541  and  _544
REMARK  212  A    between atoms: _544  and  _545
REMARK  213  A    between atoms: _548  and  _550
REMARK  214  A    between atoms: _550  and  _551
REMARK  215  A    between atoms: _550  and  _553
REMARK  216  A    between atoms: _553  and  _554
REMARK  217  A    between atoms: _554  and  _555
REMARK  218  A    between atoms: _558  and  _560
REMARK  219  A    between atoms: _560  and  _561
REMARK  220  A    between atoms: _560  and  _563
REMARK  221  A    between atoms: _563  and  _564
REMARK  222  A    between atoms: _569  and  _571
REMARK  223  A    between atoms: _571  and  _572
REMARK  224  A    between atoms: _574  and  _576
REMARK  225  A    between atoms: _576  and  _577
REMARK  226  A    between atoms: _576  and  _579
REMARK  227  A    between atoms: _579  and  _580
REMARK  228  A    between atoms: _580  and  _581
REMARK  229  A    between atoms: _583  and  _585
REMARK  230  A    between atoms: _585  and  _586
REMARK  231  A    between atoms: _585  and  _588
REMARK  232  A    between atoms: _588  and  _589
REMARK  233  A    between atoms: _592  and  _594
REMARK  234  A    between atoms: _594  and  _595
REMARK  235  A    between atoms: _594  and  _597
REMARK  236  A    between atoms: _597  and  _598
REMARK  237  A    between atoms: _608  and  _610
REMARK  238  A    between atoms: _610  and  _611
REMARK  239  A    between atoms: _610  and  _613
REMARK  240  A    between atoms: _613  and  _614
REMARK  241  A    between atoms: _616  and  _618
REMARK  242  A    between atoms: _618  and  _619
REMARK  243  A    between atoms: _618  and  _621
REMARK  244  A    between atoms: _621  and  _622
REMARK  245  A    between atoms: _627  and  _629
REMARK  246  A    between atoms: _629  and  _630
REMARK  247  A    between atoms: _629  and  _632
REMARK  248  A    between atoms: _632  and  _633
REMARK  249  A    between atoms: _639  and  _641
REMARK  250  A    between atoms: _641  and  _642
REMARK  251  A    between atoms: _641  and  _644
REMARK  252  A    between atoms: _644  and  _645
REMARK  253  A    between atoms: _645  and  _646
REMARK  254  A    between atoms: _649  and  _651
REMARK  255  A    between atoms: _651  and  _652
REMARK  256  A    between atoms: _651  and  _654
REMARK  257  A    between atoms: _654  and  _655
REMARK  258  A    between atoms: _665  and  _667
REMARK  259  A    between atoms: _667  and  _668
REMARK  260  A    between atoms: _667  and  _670
REMARK  261  A    between atoms: _670  and  _671
REMARK  262  A    between atoms: _674  and  _676
REMARK  263  A    between atoms: _676  and  _677
REMARK  264  A    between atoms: _676  and  _679
REMARK  265  A    between atoms: _679  and  _680
REMARK  266  A    between atoms: _682  and  _684
REMARK  267  A    between atoms: _684  and  _685
REMARK  268  A    between atoms: _684  and  _687
REMARK  269  A    between atoms: _687  and  _688
REMARK  270  A    between atoms: _690  and  _692
REMARK  271  A    between atoms: _692  and  _693
REMARK  272  A    between atoms: _692  and  _695
REMARK  273  A    between atoms: _695  and  _696
REMARK                            x       y       z     vdW  Elec       q    Type
REMARK                         _______ _______ _______ _____ _____    ______ ____
ROOT
ATOM      1  CB  HIS A   1       9.825  -0.690  50.043  0.00  0.00    +0.072 C 
ENDROOT
BRANCH   1   2
ATOM      2  CG  HIS A   1       9.213  -0.185  48.769  0.00  0.00    +0.082 A 
ATOM      3  ND1 HIS A   1       7.901   0.212  48.680  0.00  0.00    -0.227 NA
ATOM      4  CE1 HIS A   1       7.630   0.580  47.432  0.00  0.00    +0.199 A 
ATOM      5  NE2 HIS A   1       8.719   0.398  46.701  0.00  0.00    -0.221 NA
ATOM      6  CD2 HIS A   1       9.724  -0.077  47.515  0.00  0.00    +0.115 A 
ENDBRANCH   1   2
BRANCH   1   7
ATOM      7  CA  HIS A   1      10.429  -2.119  49.933  0.00  0.00    +0.139 C 
BRANCH   7   8
ATOM      8  N   HIS A   1      10.768  -2.640  51.295  0.00  0.00    -0.239 NA
ATOM      9  H   HIS A   1      11.121  -1.984  52.020  0.00  0.00    +0.142 HD
ENDBRANCH   7   8
BRANCH   7  10
ATOM     10  C   HIS A   1      11.649  -2.179  48.983  0.00  0.00    +0.224 C 
ATOM     11  O   HIS A   1      11.652  -2.888  47.950  0.00  0.00    -0.287 OA
ENDBRANCH   7  10
ENDBRANCH   1   7
TORSDOF 4
REMARK  Name = ../refined-set-2016/3f5j/3f5j_pocket.pdb
REMARK  273 active torsions:
REMARK  status: ('A' for Active; 'I' for Inactive)
REMARK    1  A    between atoms: _1  and  _3
REMARK    2  A    between atoms: _3  and  _4
REMARK    3  A    between atoms: _3  and  _6
REMARK    4  A    between atoms: _9  and  _11
REMARK    5  A    between atoms: _11  and  _12
REMARK    6  A    between atoms: _11  and  _14
REMARK    7  A    between atoms: _14  and  _15
REMARK    8  A    between atoms: _18  and  _20
REMARK    9  A    between atoms: _20  and  _21
REMARK   10  A    between atoms: _20  and  _23
REMARK   11  A    between atoms: _23  and  _24
REMARK   12  A    between atoms: _26  and  _28
REMARK   13  A    between atoms: _28  and  _29
REMARK   14  A    between atoms: _28  and  _31
REMARK   15  A    between atoms: _31  and  _32
REMARK   16  A    between atoms: _32  and  _33
REMARK   17  A    between atoms: _38  and  _40
REMARK   18  A    between atoms: _40  and  _41
REMARK   19  A    between atoms: _40  and  _43
REMARK   20  A    between atoms: _43  and  _44
REMARK   21  A    between atoms: _44  and  _45
REMARK   22  A    between atoms: _45  and  _46
REMARK   23  A    between atoms: _55  and  _57
REMARK   24  A    between atoms: _57  and  _58
REMARK   25  A    between atoms: _57  and  _60
REMARK   26  A    between atoms: _60  and  _61
REMARK   27  A    between atoms: _63  and  _65
REMARK   28  A    between atoms: _65  and  _66
REMARK   29  A    between atoms: _65  and  _68
REMARK   30  A    between atoms: _68  and  _69
REMARK   31  A    between atoms: _74  and  _76
REMARK   32  A    between atoms: _76  and  _77
REMARK   33  A    between atoms: _76  and  _79
REMARK   34  A    between atoms: _79  and  _80
REMARK   35  A    between atoms: _85  and  _87
REMARK   36  A    between atoms: _87  and  _88
REMARK   37  A    between atoms: _87  and  _90
REMARK   38  A    between atoms: _90  and  _91
REMARK   39  A    between atoms: _96  and  _97
REMARK   40  A    between atoms: _99  and  _101
REMARK   41  A    between atoms: _101  and  _102
REMARK   42  A    between atoms: _101  and  _104
REMARK   43  A    between atoms: _104  and  _105
REMARK   44  A    between atoms: _110  and  _112
REMARK   45  A    between atoms: _112  and  _113
REMARK   46  A    between atoms: _112  and  _115
REMARK   47  A    between atoms: _115  and  _116
REMARK   48  A    between atoms: _116  and  _117
REMARK   49  A    between atoms: _122  and  _124
REMARK   50  A    between atoms: _124  and  _125
REMARK   51  A    between atoms: _124  and  _127
REMARK   52  A    between atoms: _127  and  _128
REMARK   53  A    between atoms: _128  and  _129
REMARK   54  A    between atoms: _129  and  _130
REMARK   55  A    between atoms: _139  and  _141
REMARK   56  A    between atoms: _141  and  _142
REMARK   57  A    between atoms: _141  and  _144
REMARK   58  A    between atoms: _144  and  _145
REMARK   59  A    between atoms: _148  and  _150
REMARK   60  A    between atoms: _150  and  _151
REMARK   61  A    between atoms: _150  and  _153
REMARK   62  A    between atoms: _153  and  _154
REMARK   63  A    between atoms: _157  and  _159
REMARK   64  A    between atoms: _159  and  _160
REMARK   65  A    between atoms: _159  and  _162
REMARK   66  A    between atoms: _162  and  _163
REMARK   67  A    between atoms: _166  and  _168
REMARK   68  A    between atoms: _168  and  _169
REMARK   69  A    between atoms: _168  and  _171
REMARK   70  A    between atoms: _171  and  _172
REMARK   71  A    between atoms: _175  and  _177
REMARK   72  A    between atoms: _177  and  _178
REMARK   73  A    between atoms: _177  and  _180
REMARK   74  A    between atoms: _180  and  _181
REMARK   75  A    between atoms: _181  and  _182
REMARK   76  A    between atoms: _187  and  _189
REMARK   77  A    between atoms: _189  and  _190
REMARK   78  A    between atoms: _189  and  _192
REMARK   79  A    between atoms: _192  and  _193
REMARK   80  A    between atoms: _196  and  _198
REMARK   81  A    between atoms: _198  and  _199
REMARK   82  A    between atoms: _198  and  _201
REMARK   83  A    between atoms: _201  and  _202
REMARK   84  A    between atoms: _207  and  _209
REMARK   85  A    between atoms: _209  and  _210
REMARK   86  A    between atoms: _209  and  _212
REMARK   87  A    between atoms: _215  and  _217
REMARK   88  A    between atoms: _217  and  _218
REMARK   89  A    between atoms: _217  and  _220
REMARK   90  A    between atoms: _220  and  _221
REMARK   91  A    between atoms: _224  and  _226
REMARK   92  A    between atoms: _226  and  _227
REMARK   93  A    between atoms: _226  and  _229
REMARK   94  A    between atoms: _229  and  _230
REMARK   95  A    between atoms: _233  and  _235
REMARK   96  A    between atoms: _235  and  _236
REMARK   97  A    between atoms: _235  and  _238
REMARK   98  A    between atoms: _238  and  _239
REMARK   99  A    between atoms: _245  and  _247
REMARK  100  A    between atoms: _247  and  _248
REMARK  101  A    between atoms: _247  and  _250
REMARK  102  A    between atoms: _250  and  _251
REMARK  103  A    between atoms: _256  and  _258
REMARK  104  A    between atoms: _258  and  _259
REMARK  105  A    between atoms: _258  and  _261
REMARK  106  A    between atoms: _261  and  _262
REMARK  107  A    between atoms: _272  and  _274
REMARK  108  A    between atoms: _274  and  _275
REMARK  109  A    between atoms: _274  and  _277
REMARK  110  A    between atoms: _277  and  _278
REMARK  111  A    between atoms: _283  and  _284
REMARK  112  A    between atoms: _286  and  _288
REMARK  113  A    between atoms: _288  and  _289
REMARK  114  A    between atoms: _288  and  _291
REMARK  115  A    between atoms: _291  and  _292
REMARK  116  A    between atoms: _297  and  _299
REMARK  117  A    between atoms: _299  and  _300
REMARK  118  A    between atoms: _299  and  _302
REMARK  119  A    between atoms: _302  and  _303
REMARK  120  A    between atoms: _308  and  _310
REMARK  121  A    between atoms: _310  and  _311
REMARK  122  A    between atoms: _310  and  _313
REMARK  123  A    between atoms: _313  and  _314
REMARK  124  A    between atoms: _314  and  _315
REMARK  125  A    between atoms: _320  and  _322
REMARK  126  A    between atoms: _322  and  _323
REMARK  127  A    between atoms: _322  and  _325
REMARK  128  A    between atoms: _325  and  _326
REMARK  129  A    between atoms: _331  and  _332
REMARK  130  A    between atoms: _334  and  _336
REMARK  131  A    between atoms: _336  and  _337
REMARK  132  A    between atoms: _336  and  _339
REMARK  133  A    between atoms: _339  and  _340
REMARK  134  A    between atoms: _343  and  _345
REMARK  135  A    between atoms: _345  and  _346
REMARK  136  A    between atoms: _349  and  _351
REMARK  137  A    between atoms: _351  and  _352
REMARK  138  A    between atoms: _351  and  _354
REMARK  139  A    between atoms: _354  and  _355
REMARK  140  A    between atoms: _357  and  _359
REMARK  141  A    between atoms: _359  and  _360
REMARK  142  A    between atoms: _359  and  _362
REMARK  143  A    between atoms: _362  and  _363
REMARK  144  A    between atoms: _363  and  _364
REMARK  145  A    between atoms: _366  and  _368
REMARK  146  A    between atoms: _368  and  _369
REMARK  147  A    between atoms: _368  and  _371
REMARK  148  A    between atoms: _371  and  _372
REMARK  149  A    between atoms: _374  and  _376
REMARK  150  A    between atoms: _376  and  _377
REMARK  151  A    between atoms: _376  and  _379
REMARK  152  A    between atoms: _379  and  _380
REMARK  153  A    between atoms: _385  and  _386
REMARK  154  A    between atoms: _388  and  _390
REMARK  155  A    between atoms: _390  and  _391
REMARK  156  A    between atoms: _390  and  _393
REMARK  157  A    between atoms: _393  and  _394
REMARK  158  A    between atoms: _396  and  _398
REMARK  159  A    between atoms: _398  and  _399
REMARK  160  A    between atoms: _402  and  _404
REMARK  161  A    between atoms: _404  and  _405
REMARK  162  A    between atoms: _404  and  _407
REMARK  163  A    between atoms: _407  and  _408
REMARK  164  A    between atoms: _418  and  _420
REMARK  165  A    between atoms: _420  and  _421
REMARK  166  A    between atoms: _420  and  _423
REMARK  167  A    between atoms: _426  and  _428
REMARK  168  A    between atoms: _428  and  _429
REMARK  169  A    between atoms: _428  and  _431
REMARK  170  A    between atoms: _431  and  _432
REMARK  171  A    between atoms: _435  and  _437
REMARK  172  A    between atoms: _437  and  _438
REMARK  173  A    between atoms: _437  and  _440
REMARK  174  A    between atoms: _440  and  _441
REMARK  175  A    between atoms: _446  and  _447
REMARK  176  A    between atoms: _449  and  _451
REMARK  177  A    between atoms: _451  and  _452
REMARK  178  A    between atoms: _451  and  _454
REMARK  179  A    between atoms: _457  and  _459
REMARK  180  A    between atoms: _459  and  _460
REMARK  181  A    between atoms: _459  and  _462
REMARK  182  A    between atoms: _462  and  _463
REMARK  183  A    between atoms: _469  and  _471
REMARK  184  A    between atoms: _471  and  _472
REMARK  185  A    between atoms: _471  and  _474
REMARK  186  A    between atoms: _474  and  _475
REMARK  187  A    between atoms: _475  and  _476
REMARK  188  A    between atoms: _481  and  _483
REMARK  189  A    between atoms: _483  and  _484
REMARK  190  A    between atoms: _483  and  _486
REMARK  191  A    between atoms: _486  and  _487
REMARK  192  A    between atoms: _489  and  _491
REMARK  193  A    between atoms: _491  and  _492
REMARK  194  A    between atoms: _491  and  _494
REMARK  195  A    between atoms: _494  and  _495
REMARK  196  A    between atoms: _500  and  _502
REMARK  197  A    between atoms: _502  and  _503
REMARK  198  A    between atoms: _502  and  _505
REMARK  199  A    between atoms: _505  and  _506
REMARK  200  A    between atoms: _516  and  _518
REMARK  201  A    between atoms: _518  and  _519
REMARK  202  A    between atoms: _518  and  _521
REMARK  203  A    between atoms: _521  and  _522
REMARK  204  A    between atoms: _525  and  _527
REMARK  205  A    between atoms: _527  and  _528
REMARK  206  A    between atoms: _527  and  _530
REMARK  207  A    between atoms: _530  and  _531
REMARK  208  A    between atoms: _536  and  _537
REMARK  209  A    between atoms: _539  and  _541
REMARK  210  A    between atoms: _541  and  _542
REMARK  211  A    between atoms: _541  and  _544
REMARK  212  A    between atoms: _544  and  _545
REMARK  213  A    between atoms: _548  and  _550
REMARK  214  A    between atoms: _550  and  _551
REMARK  215  A    between atoms: _550  and  _553
REMARK  216  A    between atoms: _553  and  _554
REMARK  217  A    between atoms: _554  and  _555
REMARK  218  A    between atoms: _558  and  _560
REMARK  219  A    between atoms: _560  and  _561
REMARK  220  A    between atoms: _560  and  _563
REMARK  221  A    between atoms: _563  and  _564
REMARK  222  A    between atoms: _569  and  _571
REMARK  223  A    between atoms: _571  and  _572
REMARK  224  A    between atoms: _574  and  _576
REMARK  225  A    between atoms: _576  and  _577
REMARK  226  A    between atoms: _576  and  _579
REMARK  227  A    between atoms: _579  and  _580
REMARK  228  A    between atoms: _580  and  _581
REMARK  229  A    between atoms: _583  and  _585
REMARK  230  A    between atoms: _585  and  _586
REMARK  231  A    between atoms: _585  and  _588
REMARK  232  A    between atoms: _588  and  _589
REMARK  233  A    between atoms: _592  and  _594
REMARK  234  A    between atoms: _594  and  _595
REMARK  235  A    between atoms: _594  and  _597
REMARK  236  A    between atoms: _597  and  _598
REMARK  237  A    between atoms: _608  and  _610
REMARK  238  A    between atoms: _610  and  _611
REMARK  239  A    between atoms: _610  and  _613
REMARK  240  A    between atoms: _613  and  _614
REMARK  241  A    between atoms: _616  and  _618
REMARK  242  A    between atoms: _618  and  _619
REMARK  243  A    between atoms: _618  and  _621
REMARK  244  A    between atoms: _621  and  _622
REMARK  245  A    between atoms: _627  and  _629
REMARK  246  A    between atoms: _629  and  _630
REMARK  247  A    between atoms: _629  and  _632
REMARK  248  A    between atoms: _632  and  _633
REMARK  249  A    between atoms: _639  and  _641
REMARK  250  A    between atoms: _641  and  _642
REMARK  251  A    between atoms: _641  and  _644
REMARK  252  A    between atoms: _644  and  _645
REMARK  253  A    between atoms: _645  and  _646
REMARK  254  A    between atoms: _649  and  _651
REMARK  255  A    between atoms: _651  and  _652
REMARK  256  A    between atoms: _651  and  _654
REMARK  257  A    between atoms: _654  and  _655
REMARK  258  A    between atoms: _665  and  _667
REMARK  259  A    between atoms: _667  and  _668
REMARK  260  A    between atoms: _667  and  _670
REMARK  261  A    between atoms: _670  and  _671
REMARK  262  A    between atoms: _674  and  _676
REMARK  263  A    between atoms: _676  and  _677
REMARK  264  A    between atoms: _676  and  _679
REMARK  265  A    between atoms: _679  and  _680
REMARK  266  A    between atoms: _682  and  _684
REMARK  267  A    between atoms: _684  and  _685
REMARK  268  A    between atoms: _684  and  _687
REMARK  269  A    between atoms: _687  and  _688
REMARK  270  A    between atoms: _690  and  _692
REMARK  271  A    between atoms: _692  and  _693
REMARK  272  A    between atoms: _692  and  _695
REMARK  273  A    between atoms: _695  and  _696
REMARK                            x       y       z     vdW  Elec       q    Type
REMARK                         _______ _______ _______ _____ _____    ______ ____
ROOT
ATOM      1  CA  TYR A   3       6.600   8.125  41.950  0.00  0.00    +0.153 C 
ENDROOT
BRANCH   1   3
ATOM      2  C   GLN A   2       8.957   7.730  41.537  0.00  0.00    +0.241 C 
ATOM      3  N   TYR A   3       7.878   7.490  42.269  0.00  0.00    -0.297 N 
ATOM      4  H   TYR A   3       7.941   6.842  43.080  0.00  0.00    +0.150 HD
ATOM      5  O   GLN A   2       8.955   8.468  40.558  0.00  0.00    -0.273 OA
BRANCH   2   6
ATOM      6  CA  GLN A   2      10.208   6.975  41.907  0.00  0.00    +0.149 C 
BRANCH   6   9
ATOM      7  C   ASN A   1      10.716   4.808  40.824  0.00  0.00    +0.239 C 
ATOM      8  O   ASN A   1      10.309   4.137  41.794  0.00  0.00    -0.274 OA
ATOM      9  N   GLN A   2      10.620   6.135  40.750  0.00  0.00    -0.297 N 
ATOM     10  H   GLN A   2      10.842   6.602  39.848  0.00  0.00    +0.150 HD
BRANCH   7  11
ATOM     11  CA  ASN A   1      11.328   4.113  39.604  0.00  0.00    +0.154 C 
BRANCH  11  12
ATOM     12  N   ASN A   1      12.636   3.584  39.989  0.00  0.00    -0.238 NA
ATOM     13  H   ASN A   1      12.691   2.607  40.342  0.00  0.00    +0.142 HD
ENDBRANCH  11  12
BRANCH  11  14
ATOM     14  CB  ASN A   1      10.401   2.993  39.123  0.00  0.00    +0.111 C 
BRANCH  14  15
ATOM     15  CG  ASN A   1      10.880   2.376  37.837  0.00  0.00    +0.221 C 
ATOM     16  ND2 ASN A   1      10.190   1.339  37.350  0.00  0.00    -0.329 N 
ATOM     17 HD21 ASN A   1       9.386   0.952  37.885  0.00  0.00    +0.145 HD
ATOM     18 HD22 ASN A   1      10.457   0.920  36.436  0.00  0.00    +0.145 HD
ATOM     19  OD1 ASN A   1      11.843   2.875  37.243  0.00  0.00    -0.275 OA
ENDBRANCH  14  15
ENDBRANCH  11  14
ENDBRANCH   7  11
ENDBRANCH   6   9
BRANCH   6  20
ATOM     20  CB  GLN A   2      11.320   7.971  42.284  0.00  0.00    +0.039 C 
BRANCH  20  21
ATOM     21  CG  GLN A   2      11.392   8.299  43.788  0.00  0.00    +0.087 C 
BRANCH  21  22
ATOM     22  CD  GLN A   2      10.139   9.055  44.290  0.00  0.00    +0.219 C 
ATOM     23  NE2 GLN A   2       9.457   8.475  45.262  0.00  0.00    -0.329 N 
ATOM     24 HE21 GLN A   2       8.611   8.938  45.652  0.00  0.00    +0.145 HD
ATOM     25 HE22 GLN A   2       9.766   7.556  45.637  0.00  0.00    +0.145 HD
ATOM     26  OE1 GLN A   2       9.811  10.145  43.813  0.00  0.00    -0.275 OA
ENDBRANCH  21  22
ENDBRANCH  20  21
ENDBRANCH   6  20
ENDBRANCH   2   6
ENDBRANCH   1   3
BRANCH   1  27
ATOM     27  C   TYR A   3       6.035   8.919  43.116  0.00  0.00    +0.241 C 
ATOM     28  N   THR A   4       6.077   8.322  44.309  0.00  0.00    -0.295 N 
ATOM     29  H   THR A   4       6.708   7.512  44.472  0.00  0.00    +0.150 HD
ATOM     30  O   TYR A   3       5.483  10.005  42.917  0.00  0.00    -0.273 OA
BRANCH  28  31
ATOM     31  CA  THR A   4       5.219   8.827  45.387  0.00  0.00    +0.176 C 
BRANCH  31  32
ATOM     32  C   THR A   4       5.849   8.595  46.802  0.00  0.00    +0.243 C 
ATOM     33  N   ALA A   5       5.103   8.959  47.854  0.00  0.00    -0.297 N 
ATOM     34  H   ALA A   5       4.151   9.329  47.658  0.00  0.00    +0.150 HD
ATOM     35  O   THR A   4       6.973   8.086  46.913  0.00  0.00    -0.273 OA
BRANCH  33  36
ATOM     36  CA  ALA A   5       5.517   8.879  49.263  0.00  0.00    +0.149 C 
ATOM     37  CB  ALA A   5       6.234  10.178  49.698  0.00  0.00    +0.031 C 
BRANCH  36  38
ATOM     38  C   ALA A   5       4.301   8.612  50.157  0.00  0.00    +0.241 C 
ATOM     39  N   SER A   6       4.532   7.999  51.313  0.00  0.00    -0.296 N 
ATOM     40  H   SER A   6       5.497   7.658  51.497  0.00  0.00    +0.150 HD
ATOM     41  O   ALA A   5       3.179   8.933  49.767  0.00  0.00    -0.273 OA
BRANCH  39  42
ATOM     42  CA  SER A   6       3.510   7.770  52.354  0.00  0.00    +0.166 C 
BRANCH  42  43
ATOM     43  C   SER A   6       4.104   8.136  53.700  0.00  0.00    +0.229 C 
ATOM     44  O   SER A   6       5.320   8.018  53.879  0.00  0.00    -0.286 OA
ENDBRANCH  42  43
BRANCH  42  45
ATOM     45  CB  SER A   6       3.167   6.281  52.459  0.00  0.00    +0.165 C 
BRANCH  45  46
ATOM     46  OG  SER A   6       2.952   5.693  51.195  0.00  0.00    -0.380 OA
ATOM     47  H   SER A   6       3.772   5.782  50.647  0.00  0.00    +0.211 HD
ENDBRANCH  45  46
ENDBRANCH  42  45
ENDBRANCH  39  42
ENDBRANCH  36  38
ENDBRANCH  33  36
ENDBRANCH  31  32
BRANCH  31  48
ATOM     48  CB  THR A   4       3.722   8.277  45.223  0.00  0.00    +0.137 C 
ATOM     49  CG2 THR A   4       3.632   6.765  45.489  0.00  0.00    +0.034 C 
BRANCH  48  50
ATOM     50  OG1 THR A   4       2.841   8.948  46.140  0.00  0.00    -0.382 OA
ATOM     51  HG1 THR A   4       2.851   9.920  45.954  0.00  0.00    +0.210 HD
ENDBRANCH  48  50
ENDBRANCH  31  48
ENDBRANCH  28  31
ENDBRANCH   1  27
BRANCH   1  52
ATOM     52  CB  TYR A   3       5.548   7.086  41.542  0.00  0.00    +0.055 C 
BRANCH  52  53
ATOM     53  CG  TYR A   3       5.743   6.554  40.129  0.00  0.00    -0.020 A 
ATOM     54  CD2 TYR A   3       6.442   5.371  39.894  0.00  0.00    -0.001 A 
ATOM     55  CE2 TYR A   3       6.615   4.880  38.589  0.00  0.00    +0.036 A 
ATOM     56  CZ  TYR A   3       6.109   5.602  37.523  0.00  0.00    +0.134 A 
ATOM     57  CE1 TYR A   3       5.432   6.793  37.722  0.00  0.00    +0.036 A 
ATOM     58  CD1 TYR A   3       5.244   7.258  39.025  0.00  0.00    -0.001 A 
BRANCH  56  59
ATOM     59  OH  TYR A   3       6.264   5.101  36.248  0.00  0.00    -0.506 OA
ATOM     60  HH  TYR A   3       6.768   4.250  36.288  0.00  0.00    +0.292 HD
ENDBRANCH  56  59
ENDBRANCH  52  53
ENDBRANCH   1  52
TORSDOF 24
REMARK  Name = ../refined-set-2016/3f5j/3f5j_pocket.pdb
REMARK  273 active torsions:
REMARK  status: ('A' for Active; 'I' for Inactive)
REMARK    1  A    between atoms: _1  and  _3
REMARK    2  A    between atoms: _3  and  _4
REMARK    3  A    between atoms: _3  and  _6
REMARK    4  A    between atoms: _9  and  _11
REMARK    5  A    between atoms: _11  and  _12
REMARK    6  A    between atoms: _11  and  _14
REMARK    7  A    between atoms: _14  and  _15
REMARK    8  A    between atoms: _18  and  _20
REMARK    9  A    between atoms: _20  and  _21
REMARK   10  A    between atoms: _20  and  _23
REMARK   11  A    between atoms: _23  and  _24
REMARK   12  A    between atoms: _26  and  _28
REMARK   13  A    between atoms: _28  and  _29
REMARK   14  A    between atoms: _28  and  _31
REMARK   15  A    between atoms: _31  and  _32
REMARK   16  A    between atoms: _32  and  _33
REMARK   17  A    between atoms: _38  and  _40
REMARK   18  A    between atoms: _40  and  _41
REMARK   19  A    between atoms: _40  and  _43
REMARK   20  A    between atoms: _43  and  _44
REMARK   21  A    between atoms: _44  and  _45
REMARK   22  A    between atoms: _45  and  _46
REMARK   23  A    between atoms: _55  and  _57
REMARK   24  A    between atoms: _57  and  _58
REMARK   25  A    between atoms: _57  and  _60
REMARK   26  A    between atoms: _60  and  _61
REMARK   27  A    between atoms: _63  and  _65
REMARK   28  A    between atoms: _65  and  _66
REMARK   29  A    between atoms: _65  and  _68
REMARK   30  A    between atoms: _68  and  _69
REMARK   31  A    between atoms: _74  and  _76
REMARK   32  A    between atoms: _76  and  _77
REMARK   33  A    between atoms: _76  and  _79
REMARK   34  A    between atoms: _79  and  _80
REMARK   35  A    between atoms: _85  and  _87
REMARK   36  A    between atoms: _87  and  _88
REMARK   37  A    between atoms: _87  and  _90
REMARK   38  A    between atoms: _90  and  _91
REMARK   39  A    between atoms: _96  and  _97
REMARK   40  A    between atoms: _99  and  _101
REMARK   41  A    between atoms: _101  and  _102
REMARK   42  A    between atoms: _101  and  _104
REMARK   43  A    between atoms: _104  and  _105
REMARK   44  A    between atoms: _110  and  _112
REMARK   45  A    between atoms: _112  and  _113
REMARK   46  A    between atoms: _112  and  _115
REMARK   47  A    between atoms: _115  and  _116
REMARK   48  A    between atoms: _116  and  _117
REMARK   49  A    between atoms: _122  and  _124
REMARK   50  A    between atoms: _124  and  _125
REMARK   51  A    between atoms: _124  and  _127
REMARK   52  A    between atoms: _127  and  _128
REMARK   53  A    between atoms: _128  and  _129
REMARK   54  A    between atoms: _129  and  _130
REMARK   55  A    between atoms: _139  and  _141
REMARK   56  A    between atoms: _141  and  _142
REMARK   57  A    between atoms: _141  and  _144
REMARK   58  A    between atoms: _144  and  _145
REMARK   59  A    between atoms: _148  and  _150
REMARK   60  A    between atoms: _150  and  _151
REMARK   61  A    between atoms: _150  and  _153
REMARK   62  A    between atoms: _153  and  _154
REMARK   63  A    between atoms: _157  and  _159
REMARK   64  A    between atoms: _159  and  _160
REMARK   65  A    between atoms: _159  and  _162
REMARK   66  A    between atoms: _162  and  _163
REMARK   67  A    between atoms: _166  and  _168
REMARK   68  A    between atoms: _168  and  _169
REMARK   69  A    between atoms: _168  and  _171
REMARK   70  A    between atoms: _171  and  _172
REMARK   71  A    between atoms: _175  and  _177
REMARK   72  A    between atoms: _177  and  _178
REMARK   73  A    between atoms: _177  and  _180
REMARK   74  A    between atoms: _180  and  _181
REMARK   75  A    between atoms: _181  and  _182
REMARK   76  A    between atoms: _187  and  _189
REMARK   77  A    between atoms: _189  and  _190
REMARK   78  A    between atoms: _189  and  _192
REMARK   79  A    between atoms: _192  and  _193
REMARK   80  A    between atoms: _196  and  _198
REMARK   81  A    between atoms: _198  and  _199
REMARK   82  A    between atoms: _198  and  _201
REMARK   83  A    between atoms: _201  and  _202
REMARK   84  A    between atoms: _207  and  _209
REMARK   85  A    between atoms: _209  and  _210
REMARK   86  A    between atoms: _209  and  _212
REMARK   87  A    between atoms: _215  and  _217
REMARK   88  A    between atoms: _217  and  _218
REMARK   89  A    between atoms: _217  and  _220
REMARK   90  A    between atoms: _220  and  _221
REMARK   91  A    between atoms: _224  and  _226
REMARK   92  A    between atoms: _226  and  _227
REMARK   93  A    between atoms: _226  and  _229
REMARK   94  A    between atoms: _229  and  _230
REMARK   95  A    between atoms: _233  and  _235
REMARK   96  A    between atoms: _235  and  _236
REMARK   97  A    between atoms: _235  and  _238
REMARK   98  A    between atoms: _238  and  _239
REMARK   99  A    between atoms: _245  and  _247
REMARK  100  A    between atoms: _247  and  _248
REMARK  101  A    between atoms: _247  and  _250
REMARK  102  A    between atoms: _250  and  _251
REMARK  103  A    between atoms: _256  and  _258
REMARK  104  A    between atoms: _258  and  _259
REMARK  105  A    between atoms: _258  and  _261
REMARK  106  A    between atoms: _261  and  _262
REMARK  107  A    between atoms: _272  and  _274
REMARK  108  A    between atoms: _274  and  _275
REMARK  109  A    between atoms: _274  and  _277
REMARK  110  A    between atoms: _277  and  _278
REMARK  111  A    between atoms: _283  and  _284
REMARK  112  A    between atoms: _286  and  _288
REMARK  113  A    between atoms: _288  and  _289
REMARK  114  A    between atoms: _288  and  _291
REMARK  115  A    between atoms: _291  and  _292
REMARK  116  A    between atoms: _297  and  _299
REMARK  117  A    between atoms: _299  and  _300
REMARK  118  A    between atoms: _299  and  _302
REMARK  119  A    between atoms: _302  and  _303
REMARK  120  A    between atoms: _308  and  _310
REMARK  121  A    between atoms: _310  and  _311
REMARK  122  A    between atoms: _310  and  _313
REMARK  123  A    between atoms: _313  and  _314
REMARK  124  A    between atoms: _314  and  _315
REMARK  125  A    between atoms: _320  and  _322
REMARK  126  A    between atoms: _322  and  _323
REMARK  127  A    between atoms: _322  and  _325
REMARK  128  A    between atoms: _325  and  _326
REMARK  129  A    between atoms: _331  and  _332
REMARK  130  A    between atoms: _334  and  _336
REMARK  131  A    between atoms: _336  and  _337
REMARK  132  A    between atoms: _336  and  _339
REMARK  133  A    between atoms: _339  and  _340
REMARK  134  A    between atoms: _343  and  _345
REMARK  135  A    between atoms: _345  and  _346
REMARK  136  A    between atoms: _349  and  _351
REMARK  137  A    between atoms: _351  and  _352
REMARK  138  A    between atoms: _351  and  _354
REMARK  139  A    between atoms: _354  and  _355
REMARK  140  A    between atoms: _357  and  _359
REMARK  141  A    between atoms: _359  and  _360
REMARK  142  A    between atoms: _359  and  _362
REMARK  143  A    between atoms: _362  and  _363
REMARK  144  A    between atoms: _363  and  _364
REMARK  145  A    between atoms: _366  and  _368
REMARK  146  A    between atoms: _368  and  _369
REMARK  147  A    between atoms: _368  and  _371
REMARK  148  A    between atoms: _371  and  _372
REMARK  149  A    between atoms: _374  and  _376
REMARK  150  A    between atoms: _376  and  _377
REMARK  151  A    between atoms: _376  and  _379
REMARK  152  A    between atoms: _379  and  _380
REMARK  153  A    between atoms: _385  and  _386
REMARK  154  A    between atoms: _388  and  _390
REMARK  155  A    between atoms: _390  and  _391
REMARK  156  A    between atoms: _390  and  _393
REMARK  157  A    between atoms: _393  and  _394
REMARK  158  A    between atoms: _396  and  _398
REMARK  159  A    between atoms: _398  and  _399
REMARK  160  A    between atoms: _402  and  _404
REMARK  161  A    between atoms: _404  and  _405
REMARK  162  A    between atoms: _404  and  _407
REMARK  163  A    between atoms: _407  and  _408
REMARK  164  A    between atoms: _418  and  _420
REMARK  165  A    between atoms: _420  and  _421
REMARK  166  A    between atoms: _420  and  _423
REMARK  167  A    between atoms: _426  and  _428
REMARK  168  A    between atoms: _428  and  _429
REMARK  169  A    between atoms: _428  and  _431
REMARK  170  A    between atoms: _431  and  _432
REMARK  171  A    between atoms: _435  and  _437
REMARK  172  A    between atoms: _437  and  _438
REMARK  173  A    between atoms: _437  and  _440
REMARK  174  A    between atoms: _440  and  _441
REMARK  175  A    between atoms: _446  and  _447
REMARK  176  A    between atoms: _449  and  _451
REMARK  177  A    between atoms: _451  and  _452
REMARK  178  A    between atoms: _451  and  _454
REMARK  179  A    between atoms: _457  and  _459
REMARK  180  A    between atoms: _459  and  _460
REMARK  181  A    between atoms: _459  and  _462
REMARK  182  A    between atoms: _462  and  _463
REMARK  183  A    between atoms: _469  and  _471
REMARK  184  A    between atoms: _471  and  _472
REMARK  185  A    between atoms: _471  and  _474
REMARK  186  A    between atoms: _474  and  _475
REMARK  187  A    between atoms: _475  and  _476
REMARK  188  A    between atoms: _481  and  _483
REMARK  189  A    between atoms: _483  and  _484
REMARK  190  A    between atoms: _483  and  _486
REMARK  191  A    between atoms: _486  and  _487
REMARK  192  A    between atoms: _489  and  _491
REMARK  193  A    between atoms: _491  and  _492
REMARK  194  A    between atoms: _491  and  _494
REMARK  195  A    between atoms: _494  and  _495
REMARK  196  A    between atoms: _500  and  _502
REMARK  197  A    between atoms: _502  and  _503
REMARK  198  A    between atoms: _502  and  _505
REMARK  199  A    between atoms: _505  and  _506
REMARK  200  A    between atoms: _516  and  _518
REMARK  201  A    between atoms: _518  and  _519
REMARK  202  A    between atoms: _518  and  _521
REMARK  203  A    between atoms: _521  and  _522
REMARK  204  A    between atoms: _525  and  _527
REMARK  205  A    between atoms: _527  and  _528
REMARK  206  A    between atoms: _527  and  _530
REMARK  207  A    between atoms: _530  and  _531
REMARK  208  A    between atoms: _536  and  _537
REMARK  209  A    between atoms: _539  and  _541
REMARK  210  A    between atoms: _541  and  _542
REMARK  211  A    between atoms: _541  and  _544
REMARK  212  A    between atoms: _544  and  _545
REMARK  213  A    between atoms: _548  and  _550
REMARK  214  A    between atoms: _550  and  _551
REMARK  215  A    between atoms: _550  and  _553
REMARK  216  A    between atoms: _553  and  _554
REMARK  217  A    between atoms: _554  and  _555
REMARK  218  A    between atoms: _558  and  _560
REMARK  219  A    between atoms: _560  and  _561
REMARK  220  A    between atoms: _560  and  _563
REMARK  221  A    between atoms: _563  and  _564
REMARK  222  A    between atoms: _569  and  _571
REMARK  223  A    between atoms: _571  and  _572
REMARK  224  A    between atoms: _574  and  _576
REMARK  225  A    between atoms: _576  and  _577
REMARK  226  A    between atoms: _576  and  _579
REMARK  227  A    between atoms: _579  and  _580
REMARK  228  A    between atoms: _580  and  _581
REMARK  229  A    between atoms: _583  and  _585
REMARK  230  A    between atoms: _585  and  _586
REMARK  231  A    between atoms: _585  and  _588
REMARK  232  A    between atoms: _588  and  _589
REMARK  233  A    between atoms: _592  and  _594
REMARK  234  A    between atoms: _594  and  _595
REMARK  235  A    between atoms: _594  and  _597
REMARK  236  A    between atoms: _597  and  _598
REMARK  237  A    between atoms: _608  and  _610
REMARK  238  A    between atoms: _610  and  _611
REMARK  239  A    between atoms: _610  and  _613
REMARK  240  A    between atoms: _613  and  _614
REMARK  241  A    between atoms: _616  and  _618
REMARK  242  A    between atoms: _618  and  _619
REMARK  243  A    between atoms: _618  and  _621
REMARK  244  A    between atoms: _621  and  _622
REMARK  245  A    between atoms: _627  and  _629
REMARK  246  A    between atoms: _629  and  _630
REMARK  247  A    between atoms: _629  and  _632
REMARK  248  A    between atoms: _632  and  _633
REMARK  249  A    between atoms: _639  and  _641
REMARK  250  A    between atoms: _641  and  _642
REMARK  251  A    between atoms: _641  and  _644
REMARK  252  A    between atoms: _644  and  _645
REMARK  253  A    between atoms: _645  and  _646
REMARK  254  A    between atoms: _649  and  _651
REMARK  255  A    between atoms: _651  and  _652
REMARK  256  A    between atoms: _651  and  _654
REMARK  257  A    between atoms: _654  and  _655
REMARK  258  A    between atoms: _665  and  _667
REMARK  259  A    between atoms: _667  and  _668
REMARK  260  A    between atoms: _667  and  _670
REMARK  261  A    between atoms: _670  and  _671
REMARK  262  A    between atoms: _674  and  _676
REMARK  263  A    between atoms: _676  and  _677
REMARK  264  A    between atoms: _676  and  _679
REMARK  265  A    between atoms: _679  and  _680
REMARK  266  A    between atoms: _682  and  _684
REMARK  267  A    between atoms: _684  and  _685
REMARK  268  A    between atoms: _684  and  _687
REMARK  269  A    between atoms: _687  and  _688
REMARK  270  A    between atoms: _690  and  _692
REMARK  271  A    between atoms: _692  and  _693
REMARK  272  A    between atoms: _692  and  _695
REMARK  273  A    between atoms: _695  and  _696
REMARK                            x       y       z     vdW  Elec       q    Type
REMARK                         _______ _______ _______ _____ _____    ______ ____
ROOT
ATOM      1  CA  MET A   1       4.313   5.412  58.253  0.00  0.00    +0.134 C 
ENDROOT
BRANCH   1   2
ATOM      2  N   MET A   1       4.375   6.700  57.571  0.00  0.00    -0.239 NA
ATOM      3  H   MET A   1       5.138   7.361  57.822  0.00  0.00    +0.142 HD
ENDBRANCH   1   2
BRANCH   1   4
ATOM      4  C   MET A   1       4.114   5.588  59.752  0.00  0.00    +0.224 C 
ATOM      5  O   MET A   1       4.806   6.372  60.380  0.00  0.00    -0.287 OA
ENDBRANCH   1   4
BRANCH   1   6
ATOM      6  CB  MET A   1       5.594   4.587  58.015  0.00  0.00    +0.037 C 
BRANCH   6   7
ATOM      7  CG  MET A   1       5.677   3.963  56.641  0.00  0.00    +0.059 C 
BRANCH   7   8
ATOM      8  SD  MET A   1       4.449   2.648  56.468  0.00  0.00    -0.139 S 
ATOM      9  CE  MET A   1       3.681   3.119  54.959  0.00  0.00    +0.069 C 
ENDBRANCH   7   8
ENDBRANCH   6   7
ENDBRANCH   1   6
TORSDOF 5
REMARK  Name = ../refined-set-2016/3f5j/3f5j_pocket.pdb
REMARK  273 active torsions:
REMARK  status: ('A' for Active; 'I' for Inactive)
REMARK    1  A    between atoms: _1  and  _3
REMARK    2  A    between atoms: _3  and  _4
REMARK    3  A    between atoms: _3  and  _6
REMARK    4  A    between atoms: _9  and  _11
REMARK    5  A    between atoms: _11  and  _12
REMARK    6  A    between atoms: _11  and  _14
REMARK    7  A    between atoms: _14  and  _15
REMARK    8  A    between atoms: _18  and  _20
REMARK    9  A    between atoms: _20  and  _21
REMARK   10  A    between atoms: _20  and  _23
REMARK   11  A    between atoms: _23  and  _24
REMARK   12  A    between atoms: _26  and  _28
REMARK   13  A    between atoms: _28  and  _29
REMARK   14  A    between atoms: _28  and  _31
REMARK   15  A    between atoms: _31  and  _32
REMARK   16  A    between atoms: _32  and  _33
REMARK   17  A    between atoms: _38  and  _40
REMARK   18  A    between atoms: _40  and  _41
REMARK   19  A    between atoms: _40  and  _43
REMARK   20  A    between atoms: _43  and  _44
REMARK   21  A    between atoms: _44  and  _45
REMARK   22  A    between atoms: _45  and  _46
REMARK   23  A    between atoms: _55  and  _57
REMARK   24  A    between atoms: _57  and  _58
REMARK   25  A    between atoms: _57  and  _60
REMARK   26  A    between atoms: _60  and  _61
REMARK   27  A    between atoms: _63  and  _65
REMARK   28  A    between atoms: _65  and  _66
REMARK   29  A    between atoms: _65  and  _68
REMARK   30  A    between atoms: _68  and  _69
REMARK   31  A    between atoms: _74  and  _76
REMARK   32  A    between atoms: _76  and  _77
REMARK   33  A    between atoms: _76  and  _79
REMARK   34  A    between atoms: _79  and  _80
REMARK   35  A    between atoms: _85  and  _87
REMARK   36  A    between atoms: _87  and  _88
REMARK   37  A    between atoms: _87  and  _90
REMARK   38  A    between atoms: _90  and  _91
REMARK   39  A    between atoms: _96  and  _97
REMARK   40  A    between atoms: _99  and  _101
REMARK   41  A    between atoms: _101  and  _102
REMARK   42  A    between atoms: _101  and  _104
REMARK   43  A    between atoms: _104  and  _105
REMARK   44  A    between atoms: _110  and  _112
REMARK   45  A    between atoms: _112  and  _113
REMARK   46  A    between atoms: _112  and  _115
REMARK   47  A    between atoms: _115  and  _116
REMARK   48  A    between atoms: _116  and  _117
REMARK   49  A    between atoms: _122  and  _124
REMARK   50  A    between atoms: _124  and  _125
REMARK   51  A    between atoms: _124  and  _127
REMARK   52  A    between atoms: _127  and  _128
REMARK   53  A    between atoms: _128  and  _129
REMARK   54  A    between atoms: _129  and  _130
REMARK   55  A    between atoms: _139  and  _141
REMARK   56  A    between atoms: _141  and  _142
REMARK   57  A    between atoms: _141  and  _144
REMARK   58  A    between atoms: _144  and  _145
REMARK   59  A    between atoms: _148  and  _150
REMARK   60  A    between atoms: _150  and  _151
REMARK   61  A    between atoms: _150  and  _153
REMARK   62  A    between atoms: _153  and  _154
REMARK   63  A    between atoms: _157  and  _159
REMARK   64  A    between atoms: _159  and  _160
REMARK   65  A    between atoms: _159  and  _162
REMARK   66  A    between atoms: _162  and  _163
REMARK   67  A    between atoms: _166  and  _168
REMARK   68  A    between atoms: _168  and  _169
REMARK   69  A    between atoms: _168  and  _171
REMARK   70  A    between atoms: _171  and  _172
REMARK   71  A    between atoms: _175  and  _177
REMARK   72  A    between atoms: _177  and  _178
REMARK   73  A    between atoms: _177  and  _180
REMARK   74  A    between atoms: _180  and  _181
REMARK   75  A    between atoms: _181  and  _182
REMARK   76  A    between atoms: _187  and  _189
REMARK   77  A    between atoms: _189  and  _190
REMARK   78  A    between atoms: _189  and  _192
REMARK   79  A    between atoms: _192  and  _193
REMARK   80  A    between atoms: _196  and  _198
REMARK   81  A    between atoms: _198  and  _199
REMARK   82  A    between atoms: _198  and  _201
REMARK   83  A    between atoms: _201  and  _202
REMARK   84  A    between atoms: _207  and  _209
REMARK   85  A    between atoms: _209  and  _210
REMARK   86  A    between atoms: _209  and  _212
REMARK   87  A    between atoms: _215  and  _217
REMARK   88  A    between atoms: _217  and  _218
REMARK   89  A    between atoms: _217  and  _220
REMARK   90  A    between atoms: _220  and  _221
REMARK   91  A    between atoms: _224  and  _226
REMARK   92  A    between atoms: _226  and  _227
REMARK   93  A    between atoms: _226  and  _229
REMARK   94  A    between atoms: _229  and  _230
REMARK   95  A    between atoms: _233  and  _235
REMARK   96  A    between atoms: _235  and  _236
REMARK   97  A    between atoms: _235  and  _238
REMARK   98  A    between atoms: _238  and  _239
REMARK   99  A    between atoms: _245  and  _247
REMARK  100  A    between atoms: _247  and  _248
REMARK  101  A    between atoms: _247  and  _250
REMARK  102  A    between atoms: _250  and  _251
REMARK  103  A    between atoms: _256  and  _258
REMARK  104  A    between atoms: _258  and  _259
REMARK  105  A    between atoms: _258  and  _261
REMARK  106  A    between atoms: _261  and  _262
REMARK  107  A    between atoms: _272  and  _274
REMARK  108  A    between atoms: _274  and  _275
REMARK  109  A    between atoms: _274  and  _277
REMARK  110  A    between atoms: _277  and  _278
REMARK  111  A    between atoms: _283  and  _284
REMARK  112  A    between atoms: _286  and  _288
REMARK  113  A    between atoms: _288  and  _289
REMARK  114  A    between atoms: _288  and  _291
REMARK  115  A    between atoms: _291  and  _292
REMARK  116  A    between atoms: _297  and  _299
REMARK  117  A    between atoms: _299  and  _300
REMARK  118  A    between atoms: _299  and  _302
REMARK  119  A    between atoms: _302  and  _303
REMARK  120  A    between atoms: _308  and  _310
REMARK  121  A    between atoms: _310  and  _311
REMARK  122  A    between atoms: _310  and  _313
REMARK  123  A    between atoms: _313  and  _314
REMARK  124  A    between atoms: _314  and  _315
REMARK  125  A    between atoms: _320  and  _322
REMARK  126  A    between atoms: _322  and  _323
REMARK  127  A    between atoms: _322  and  _325
REMARK  128  A    between atoms: _325  and  _326
REMARK  129  A    between atoms: _331  and  _332
REMARK  130  A    between atoms: _334  and  _336
REMARK  131  A    between atoms: _336  and  _337
REMARK  132  A    between atoms: _336  and  _339
REMARK  133  A    between atoms: _339  and  _340
REMARK  134  A    between atoms: _343  and  _345
REMARK  135  A    between atoms: _345  and  _346
REMARK  136  A    between atoms: _349  and  _351
REMARK  137  A    between atoms: _351  and  _352
REMARK  138  A    between atoms: _351  and  _354
REMARK  139  A    between atoms: _354  and  _355
REMARK  140  A    between atoms: _357  and  _359
REMARK  141  A    between atoms: _359  and  _360
REMARK  142  A    between atoms: _359  and  _362
REMARK  143  A    between atoms: _362  and  _363
REMARK  144  A    between atoms: _363  and  _364
REMARK  145  A    between atoms: _366  and  _368
REMARK  146  A    between atoms: _368  and  _369
REMARK  147  A    between atoms: _368  and  _371
REMARK  148  A    between atoms: _371  and  _372
REMARK  149  A    between atoms: _374  and  _376
REMARK  150  A    between atoms: _376  and  _377
REMARK  151  A    between atoms: _376  and  _379
REMARK  152  A    between atoms: _379  and  _380
REMARK  153  A    between atoms: _385  and  _386
REMARK  154  A    between atoms: _388  and  _390
REMARK  155  A    between atoms: _390  and  _391
REMARK  156  A    between atoms: _390  and  _393
REMARK  157  A    between atoms: _393  and  _394
REMARK  158  A    between atoms: _396  and  _398
REMARK  159  A    between atoms: _398  and  _399
REMARK  160  A    between atoms: _402  and  _404
REMARK  161  A    between atoms: _404  and  _405
REMARK  162  A    between atoms: _404  and  _407
REMARK  163  A    between atoms: _407  and  _408
REMARK  164  A    between atoms: _418  and  _420
REMARK  165  A    between atoms: _420  and  _421
REMARK  166  A    between atoms: _420  and  _423
REMARK  167  A    between atoms: _426  and  _428
REMARK  168  A    between atoms: _428  and  _429
REMARK  169  A    between atoms: _428  and  _431
REMARK  170  A    between atoms: _431  and  _432
REMARK  171  A    between atoms: _435  and  _437
REMARK  172  A    between atoms: _437  and  _438
REMARK  173  A    between atoms: _437  and  _440
REMARK  174  A    between atoms: _440  and  _441
REMARK  175  A    between atoms: _446  and  _447
REMARK  176  A    between atoms: _449  and  _451
REMARK  177  A    between atoms: _451  and  _452
REMARK  178  A    between atoms: _451  and  _454
REMARK  179  A    between atoms: _457  and  _459
REMARK  180  A    between atoms: _459  and  _460
REMARK  181  A    between atoms: _459  and  _462
REMARK  182  A    between atoms: _462  and  _463
REMARK  183  A    between atoms: _469  and  _471
REMARK  184  A    between atoms: _471  and  _472
REMARK  185  A    between atoms: _471  and  _474
REMARK  186  A    between atoms: _474  and  _475
REMARK  187  A    between atoms: _475  and  _476
REMARK  188  A    between atoms: _481  and  _483
REMARK  189  A    between atoms: _483  and  _484
REMARK  190  A    between atoms: _483  and  _486
REMARK  191  A    between atoms: _486  and  _487
REMARK  192  A    between atoms: _489  and  _491
REMARK  193  A    between atoms: _491  and  _492
REMARK  194  A    between atoms: _491  and  _494
REMARK  195  A    between atoms: _494  and  _495
REMARK  196  A    between atoms: _500  and  _502
REMARK  197  A    between atoms: _502  and  _503
REMARK  198  A    between atoms: _502  and  _505
REMARK  199  A    between atoms: _505  and  _506
REMARK  200  A    between atoms: _516  and  _518
REMARK  201  A    between atoms: _518  and  _519
REMARK  202  A    between atoms: _518  and  _521
REMARK  203  A    between atoms: _521  and  _522
REMARK  204  A    between atoms: _525  and  _527
REMARK  205  A    between atoms: _527  and  _528
REMARK  206  A    between atoms: _527  and  _530
REMARK  207  A    between atoms: _530  and  _531
REMARK  208  A    between atoms: _536  and  _537
REMARK  209  A    between atoms: _539  and  _541
REMARK  210  A    between atoms: _541  and  _542
REMARK  211  A    between atoms: _541  and  _544
REMARK  212  A    between atoms: _544  and  _545
REMARK  213  A    between atoms: _548  and  _550
REMARK  214  A    between atoms: _550  and  _551
REMARK  215  A    between atoms: _550  and  _553
REMARK  216  A    between atoms: _553  and  _554
REMARK  217  A    between atoms: _554  and  _555
REMARK  218  A    between atoms: _558  and  _560
REMARK  219  A    between atoms: _560  and  _561
REMARK  220  A    between atoms: _560  and  _563
REMARK  221  A    between atoms: _563  and  _564
REMARK  222  A    between atoms: _569  and  _571
REMARK  223  A    between atoms: _571  and  _572
REMARK  224  A    between atoms: _574  and  _576
REMARK  225  A    between atoms: _576  and  _577
REMARK  226  A    between atoms: _576  and  _579
REMARK  227  A    between atoms: _579  and  _580
REMARK  228  A    between atoms: _580  and  _581
REMARK  229  A    between atoms: _583  and  _585
REMARK  230  A    between atoms: _585  and  _586
REMARK  231  A    between atoms: _585  and  _588
REMARK  232  A    between atoms: _588  and  _589
REMARK  233  A    between atoms: _592  and  _594
REMARK  234  A    between atoms: _594  and  _595
REMARK  235  A    between atoms: _594  and  _597
REMARK  236  A    between atoms: _597  and  _598
REMARK  237  A    between atoms: _608  and  _610
REMARK  238  A    between atoms: _610  and  _611
REMARK  239  A    between atoms: _610  and  _613
REMARK  240  A    between atoms: _613  and  _614
REMARK  241  A    between atoms: _616  and  _618
REMARK  242  A    between atoms: _618  and  _619
REMARK  243  A    between atoms: _618  and  _621
REMARK  244  A    between atoms: _621  and  _622
REMARK  245  A    between atoms: _627  and  _629
REMARK  246  A    between atoms: _629  and  _630
REMARK  247  A    between atoms: _629  and  _632
REMARK  248  A    between atoms: _632  and  _633
REMARK  249  A    between atoms: _639  and  _641
REMARK  250  A    between atoms: _641  and  _642
REMARK  251  A    between atoms: _641  and  _644
REMARK  252  A    between atoms: _644  and  _645
REMARK  253  A    between atoms: _645  and  _646
REMARK  254  A    between atoms: _649  and  _651
REMARK  255  A    between atoms: _651  and  _652
REMARK  256  A    between atoms: _651  and  _654
REMARK  257  A    between atoms: _654  and  _655
REMARK  258  A    between atoms: _665  and  _667
REMARK  259  A    between atoms: _667  and  _668
REMARK  260  A    between atoms: _667  and  _670
REMARK  261  A    between atoms: _670  and  _671
REMARK  262  A    between atoms: _674  and  _676
REMARK  263  A    between atoms: _676  and  _677
REMARK  264  A    between atoms: _676  and  _679
REMARK  265  A    between atoms: _679  and  _680
REMARK  266  A    between atoms: _682  and  _684
REMARK  267  A    between atoms: _684  and  _685
REMARK  268  A    between atoms: _684  and  _687
REMARK  269  A    between atoms: _687  and  _688
REMARK  270  A    between atoms: _690  and  _692
REMARK  271  A    between atoms: _692  and  _693
REMARK  272  A    between atoms: _692  and  _695
REMARK  273  A    between atoms: _695  and  _696
REMARK                            x       y       z     vdW  Elec       q    Type
REMARK                         _______ _______ _______ _____ _____    ______ ____
ROOT
ATOM      1  CA  TYR A   2       4.635 -10.252  52.552  0.00  0.00    +0.153 C 
ENDROOT
BRANCH   1   4
ATOM      2  C   SER A   1       2.834 -11.359  53.801  0.00  0.00    +0.241 C 
ATOM      3  O   SER A   1       3.121 -10.826  54.865  0.00  0.00    -0.274 OA
ATOM      4  N   TYR A   2       3.541 -11.222  52.684  0.00  0.00    -0.297 N 
ATOM      5  H   TYR A   2       3.310 -11.827  51.870  0.00  0.00    +0.150 HD
BRANCH   2   6
ATOM      6  CA  SER A   1       1.603 -12.227  53.697  0.00  0.00    +0.174 C 
BRANCH   6   7
ATOM      7  N   SER A   1       1.153 -12.746  54.984  0.00  0.00    -0.236 NA
ATOM      8  H   SER A   1       1.508 -12.326  55.867  0.00  0.00    +0.142 HD
ENDBRANCH   6   7
BRANCH   6   9
ATOM      9  CB  SER A   1       0.485 -11.415  53.039  0.00  0.00    +0.163 C 
BRANCH   9  10
ATOM     10  OG  SER A   1       0.308 -10.161  53.695  0.00  0.00    -0.380 OA
ATOM     11  H   SER A   1       0.071 -10.317  54.644  0.00  0.00    +0.211 HD
ENDBRANCH   9  10
ENDBRANCH   6   9
ENDBRANCH   2   6
ENDBRANCH   1   4
BRANCH   1  12
ATOM     12  C   TYR A   2       4.185  -8.884  53.055  0.00  0.00    +0.241 C 
ATOM     13  O   TYR A   2       4.868  -8.283  53.886  0.00  0.00    -0.273 OA
ATOM     14  N   SER A   3       3.024  -8.402  52.605  0.00  0.00    -0.295 N 
ATOM     15  H   SER A   3       2.448  -8.966  51.947  0.00  0.00    +0.150 HD
BRANCH  14  16
ATOM     16  CA  SER A   3       2.561  -7.088  53.033  0.00  0.00    +0.178 C 
BRANCH  16  17
ATOM     17  C   SER A   3       2.394  -6.980  54.566  0.00  0.00    +0.243 C 
ATOM     18  N   ALA A   4       1.767  -7.976  55.179  0.00  0.00    -0.298 N 
ATOM     19  H   ALA A   4       1.437  -8.788  54.619  0.00  0.00    +0.150 HD
ATOM     20  O   SER A   3       2.848  -6.011  55.171  0.00  0.00    -0.273 OA
BRANCH  18  21
ATOM     21  CA  ALA A   4       1.524  -7.962  56.641  0.00  0.00    +0.137 C 
ATOM     22  CB  ALA A   4       0.442  -8.982  57.006  0.00  0.00    +0.030 C 
BRANCH  21  23
ATOM     23  C   ALA A   4       2.811  -8.146  57.477  0.00  0.00    +0.227 C 
ATOM     24  O   ALA A   4       2.871  -7.761  58.644  0.00  0.00    -0.286 OA
ENDBRANCH  21  23
ENDBRANCH  18  21
ENDBRANCH  16  17
BRANCH  16  25
ATOM     25  CB  SER A   3       1.239  -6.758  52.338  0.00  0.00    +0.166 C 
BRANCH  25  26
ATOM     26  OG  SER A   3       1.492  -6.666  50.943  0.00  0.00    -0.380 OA
ATOM     27  H   SER A   3       0.649  -6.453  50.469  0.00  0.00    +0.211 HD
ENDBRANCH  25  26
ENDBRANCH  16  25
ENDBRANCH  14  16
ENDBRANCH   1  12
BRANCH   1  28
ATOM     28  CB  TYR A   2       5.126 -10.182  51.095  0.00  0.00    +0.055 C 
BRANCH  28  29
ATOM     29  CG  TYR A   2       5.899  -8.925  50.727  0.00  0.00    -0.020 A 
ATOM     30  CD2 TYR A   2       7.179  -8.678  51.226  0.00  0.00    -0.001 A 
ATOM     31  CE2 TYR A   2       7.879  -7.506  50.852  0.00  0.00    +0.036 A 
ATOM     32  CZ  TYR A   2       7.245  -6.554  50.024  0.00  0.00    +0.134 A 
ATOM     33  CE1 TYR A   2       5.984  -6.799  49.523  0.00  0.00    +0.036 A 
ATOM     34  CD1 TYR A   2       5.322  -7.960  49.881  0.00  0.00    -0.001 A 
BRANCH  32  35
ATOM     35  OH  TYR A   2       7.878  -5.392  49.599  0.00  0.00    -0.506 OA
ATOM     36  HH  TYR A   2       8.770  -5.329  50.025  0.00  0.00    +0.292 HD
ENDBRANCH  32  35
ENDBRANCH  28  29
ENDBRANCH   1  28
TORSDOF 15
REMARK  Name = ../refined-set-2016/3f5j/3f5j_pocket.pdb
REMARK  273 active torsions:
REMARK  status: ('A' for Active; 'I' for Inactive)
REMARK    1  A    between atoms: _1  and  _3
REMARK    2  A    between atoms: _3  and  _4
REMARK    3  A    between atoms: _3  and  _6
REMARK    4  A    between atoms: _9  and  _11
REMARK    5  A    between atoms: _11  and  _12
REMARK    6  A    between atoms: _11  and  _14
REMARK    7  A    between atoms: _14  and  _15
REMARK    8  A    between atoms: _18  and  _20
REMARK    9  A    between atoms: _20  and  _21
REMARK   10  A    between atoms: _20  and  _23
REMARK   11  A    between atoms: _23  and  _24
REMARK   12  A    between atoms: _26  and  _28
REMARK   13  A    between atoms: _28  and  _29
REMARK   14  A    between atoms: _28  and  _31
REMARK   15  A    between atoms: _31  and  _32
REMARK   16  A    between atoms: _32  and  _33
REMARK   17  A    between atoms: _38  and  _40
REMARK   18  A    between atoms: _40  and  _41
REMARK   19  A    between atoms: _40  and  _43
REMARK   20  A    between atoms: _43  and  _44
REMARK   21  A    between atoms: _44  and  _45
REMARK   22  A    between atoms: _45  and  _46
REMARK   23  A    between atoms: _55  and  _57
REMARK   24  A    between atoms: _57  and  _58
REMARK   25  A    between atoms: _57  and  _60
REMARK   26  A    between atoms: _60  and  _61
REMARK   27  A    between atoms: _63  and  _65
REMARK   28  A    between atoms: _65  and  _66
REMARK   29  A    between atoms: _65  and  _68
REMARK   30  A    between atoms: _68  and  _69
REMARK   31  A    between atoms: _74  and  _76
REMARK   32  A    between atoms: _76  and  _77
REMARK   33  A    between atoms: _76  and  _79
REMARK   34  A    between atoms: _79  and  _80
REMARK   35  A    between atoms: _85  and  _87
REMARK   36  A    between atoms: _87  and  _88
REMARK   37  A    between atoms: _87  and  _90
REMARK   38  A    between atoms: _90  and  _91
REMARK   39  A    between atoms: _96  and  _97
REMARK   40  A    between atoms: _99  and  _101
REMARK   41  A    between atoms: _101  and  _102
REMARK   42  A    between atoms: _101  and  _104
REMARK   43  A    between atoms: _104  and  _105
REMARK   44  A    between atoms: _110  and  _112
REMARK   45  A    between atoms: _112  and  _113
REMARK   46  A    between atoms: _112  and  _115
REMARK   47  A    between atoms: _115  and  _116
REMARK   48  A    between atoms: _116  and  _117
REMARK   49  A    between atoms: _122  and  _124
REMARK   50  A    between atoms: _124  and  _125
REMARK   51  A    between atoms: _124  and  _127
REMARK   52  A    between atoms: _127  and  _128
REMARK   53  A    between atoms: _128  and  _129
REMARK   54  A    between atoms: _129  and  _130
REMARK   55  A    between atoms: _139  and  _141
REMARK   56  A    between atoms: _141  and  _142
REMARK   57  A    between atoms: _141  and  _144
REMARK   58  A    between atoms: _144  and  _145
REMARK   59  A    between atoms: _148  and  _150
REMARK   60  A    between atoms: _150  and  _151
REMARK   61  A    between atoms: _150  and  _153
REMARK   62  A    between atoms: _153  and  _154
REMARK   63  A    between atoms: _157  and  _159
REMARK   64  A    between atoms: _159  and  _160
REMARK   65  A    between atoms: _159  and  _162
REMARK   66  A    between atoms: _162  and  _163
REMARK   67  A    between atoms: _166  and  _168
REMARK   68  A    between atoms: _168  and  _169
REMARK   69  A    between atoms: _168  and  _171
REMARK   70  A    between atoms: _171  and  _172
REMARK   71  A    between atoms: _175  and  _177
REMARK   72  A    between atoms: _177  and  _178
REMARK   73  A    between atoms: _177  and  _180
REMARK   74  A    between atoms: _180  and  _181
REMARK   75  A    between atoms: _181  and  _182
REMARK   76  A    between atoms: _187  and  _189
REMARK   77  A    between atoms: _189  and  _190
REMARK   78  A    between atoms: _189  and  _192
REMARK   79  A    between atoms: _192  and  _193
REMARK   80  A    between atoms: _196  and  _198
REMARK   81  A    between atoms: _198  and  _199
REMARK   82  A    between atoms: _198  and  _201
REMARK   83  A    between atoms: _201  and  _202
REMARK   84  A    between atoms: _207  and  _209
REMARK   85  A    between atoms: _209  and  _210
REMARK   86  A    between atoms: _209  and  _212
REMARK   87  A    between atoms: _215  and  _217
REMARK   88  A    between atoms: _217  and  _218
REMARK   89  A    between atoms: _217  and  _220
REMARK   90  A    between atoms: _220  and  _221
REMARK   91  A    between atoms: _224  and  _226
REMARK   92  A    between atoms: _226  and  _227
REMARK   93  A    between atoms: _226  and  _229
REMARK   94  A    between atoms: _229  and  _230
REMARK   95  A    between atoms: _233  and  _235
REMARK   96  A    between atoms: _235  and  _236
REMARK   97  A    between atoms: _235  and  _238
REMARK   98  A    between atoms: _238  and  _239
REMARK   99  A    between atoms: _245  and  _247
REMARK  100  A    between atoms: _247  and  _248
REMARK  101  A    between atoms: _247  and  _250
REMARK  102  A    between atoms: _250  and  _251
REMARK  103  A    between atoms: _256  and  _258
REMARK  104  A    between atoms: _258  and  _259
REMARK  105  A    between atoms: _258  and  _261
REMARK  106  A    between atoms: _261  and  _262
REMARK  107  A    between atoms: _272  and  _274
REMARK  108  A    between atoms: _274  and  _275
REMARK  109  A    between atoms: _274  and  _277
REMARK  110  A    between atoms: _277  and  _278
REMARK  111  A    between atoms: _283  and  _284
REMARK  112  A    between atoms: _286  and  _288
REMARK  113  A    between atoms: _288  and  _289
REMARK  114  A    between atoms: _288  and  _291
REMARK  115  A    between atoms: _291  and  _292
REMARK  116  A    between atoms: _297  and  _299
REMARK  117  A    between atoms: _299  and  _300
REMARK  118  A    between atoms: _299  and  _302
REMARK  119  A    between atoms: _302  and  _303
REMARK  120  A    between atoms: _308  and  _310
REMARK  121  A    between atoms: _310  and  _311
REMARK  122  A    between atoms: _310  and  _313
REMARK  123  A    between atoms: _313  and  _314
REMARK  124  A    between atoms: _314  and  _315
REMARK  125  A    between atoms: _320  and  _322
REMARK  126  A    between atoms: _322  and  _323
REMARK  127  A    between atoms: _322  and  _325
REMARK  128  A    between atoms: _325  and  _326
REMARK  129  A    between atoms: _331  and  _332
REMARK  130  A    between atoms: _334  and  _336
REMARK  131  A    between atoms: _336  and  _337
REMARK  132  A    between atoms: _336  and  _339
REMARK  133  A    between atoms: _339  and  _340
REMARK  134  A    between atoms: _343  and  _345
REMARK  135  A    between atoms: _345  and  _346
REMARK  136  A    between atoms: _349  and  _351
REMARK  137  A    between atoms: _351  and  _352
REMARK  138  A    between atoms: _351  and  _354
REMARK  139  A    between atoms: _354  and  _355
REMARK  140  A    between atoms: _357  and  _359
REMARK  141  A    between atoms: _359  and  _360
REMARK  142  A    between atoms: _359  and  _362
REMARK  143  A    between atoms: _362  and  _363
REMARK  144  A    between atoms: _363  and  _364
REMARK  145  A    between atoms: _366  and  _368
REMARK  146  A    between atoms: _368  and  _369
REMARK  147  A    between atoms: _368  and  _371
REMARK  148  A    between atoms: _371  and  _372
REMARK  149  A    between atoms: _374  and  _376
REMARK  150  A    between atoms: _376  and  _377
REMARK  151  A    between atoms: _376  and  _379
REMARK  152  A    between atoms: _379  and  _380
REMARK  153  A    between atoms: _385  and  _386
REMARK  154  A    between atoms: _388  and  _390
REMARK  155  A    between atoms: _390  and  _391
REMARK  156  A    between atoms: _390  and  _393
REMARK  157  A    between atoms: _393  and  _394
REMARK  158  A    between atoms: _396  and  _398
REMARK  159  A    between atoms: _398  and  _399
REMARK  160  A    between atoms: _402  and  _404
REMARK  161  A    between atoms: _404  and  _405
REMARK  162  A    between atoms: _404  and  _407
REMARK  163  A    between atoms: _407  and  _408
REMARK  164  A    between atoms: _418  and  _420
REMARK  165  A    between atoms: _420  and  _421
REMARK  166  A    between atoms: _420  and  _423
REMARK  167  A    between atoms: _426  and  _428
REMARK  168  A    between atoms: _428  and  _429
REMARK  169  A    between atoms: _428  and  _431
REMARK  170  A    between atoms: _431  and  _432
REMARK  171  A    between atoms: _435  and  _437
REMARK  172  A    between atoms: _437  and  _438
REMARK  173  A    between atoms: _437  and  _440
REMARK  174  A    between atoms: _440  and  _441
REMARK  175  A    between atoms: _446  and  _447
REMARK  176  A    between atoms: _449  and  _451
REMARK  177  A    between atoms: _451  and  _452
REMARK  178  A    between atoms: _451  and  _454
REMARK  179  A    between atoms: _457  and  _459
REMARK  180  A    between atoms: _459  and  _460
REMARK  181  A    between atoms: _459  and  _462
REMARK  182  A    between atoms: _462  and  _463
REMARK  183  A    between atoms: _469  and  _471
REMARK  184  A    between atoms: _471  and  _472
REMARK  185  A    between atoms: _471  and  _474
REMARK  186  A    between atoms: _474  and  _475
REMARK  187  A    between atoms: _475  and  _476
REMARK  188  A    between atoms: _481  and  _483
REMARK  189  A    between atoms: _483  and  _484
REMARK  190  A    between atoms: _483  and  _486
REMARK  191  A    between atoms: _486  and  _487
REMARK  192  A    between atoms: _489  and  _491
REMARK  193  A    between atoms: _491  and  _492
REMARK  194  A    between atoms: _491  and  _494
REMARK  195  A    between atoms: _494  and  _495
REMARK  196  A    between atoms: _500  and  _502
REMARK  197  A    between atoms: _502  and  _503
REMARK  198  A    between atoms: _502  and  _505
REMARK  199  A    between atoms: _505  and  _506
REMARK  200  A    between atoms: _516  and  _518
REMARK  201  A    between atoms: _518  and  _519
REMARK  202  A    between atoms: _518  and  _521
REMARK  203  A    between atoms: _521  and  _522
REMARK  204  A    between atoms: _525  and  _527
REMARK  205  A    between atoms: _527  and  _528
REMARK  206  A    between atoms: _527  and  _530
REMARK  207  A    between atoms: _530  and  _531
REMARK  208  A    between atoms: _536  and  _537
REMARK  209  A    between atoms: _539  and  _541
REMARK  210  A    between atoms: _541  and  _542
REMARK  211  A    between atoms: _541  and  _544
REMARK  212  A    between atoms: _544  and  _545
REMARK  213  A    between atoms: _548  and  _550
REMARK  214  A    between atoms: _550  and  _551
REMARK  215  A    between atoms: _550  and  _553
REMARK  216  A    between atoms: _553  and  _554
REMARK  217  A    between atoms: _554  and  _555
REMARK  218  A    between atoms: _558  and  _560
REMARK  219  A    between atoms: _560  and  _561
REMARK  220  A    between atoms: _560  and  _563
REMARK  221  A    between atoms: _563  and  _564
REMARK  222  A    between atoms: _569  and  _571
REMARK  223  A    between atoms: _571  and  _572
REMARK  224  A    between atoms: _574  and  _576
REMARK  225  A    between atoms: _576  and  _577
REMARK  226  A    between atoms: _576  and  _579
REMARK  227  A    between atoms: _579  and  _580
REMARK  228  A    between atoms: _580  and  _581
REMARK  229  A    between atoms: _583  and  _585
REMARK  230  A    between atoms: _585  and  _586
REMARK  231  A    between atoms: _585  and  _588
REMARK  232  A    between atoms: _588  and  _589
REMARK  233  A    between atoms: _592  and  _594
REMARK  234  A    between atoms: _594  and  _595
REMARK  235  A    between atoms: _594  and  _597
REMARK  236  A    between atoms: _597  and  _598
REMARK  237  A    between atoms: _608  and  _610
REMARK  238  A    between atoms: _610  and  _611
REMARK  239  A    between atoms: _610  and  _613
REMARK  240  A    between atoms: _613  and  _614
REMARK  241  A    between atoms: _616  and  _618
REMARK  242  A    between atoms: _618  and  _619
REMARK  243  A    between atoms: _618  and  _621
REMARK  244  A    between atoms: _621  and  _622
REMARK  245  A    between atoms: _627  and  _629
REMARK  246  A    between atoms: _629  and  _630
REMARK  247  A    between atoms: _629  and  _632
REMARK  248  A    between atoms: _632  and  _633
REMARK  249  A    between atoms: _639  and  _641
REMARK  250  A    between atoms: _641  and  _642
REMARK  251  A    between atoms: _641  and  _644
REMARK  252  A    between atoms: _644  and  _645
REMARK  253  A    between atoms: _645  and  _646
REMARK  254  A    between atoms: _649  and  _651
REMARK  255  A    between atoms: _651  and  _652
REMARK  256  A    between atoms: _651  and  _654
REMARK  257  A    between atoms: _654  and  _655
REMARK  258  A    between atoms: _665  and  _667
REMARK  259  A    between atoms: _667  and  _668
REMARK  260  A    between atoms: _667  and  _670
REMARK  261  A    between atoms: _670  and  _671
REMARK  262  A    between atoms: _674  and  _676
REMARK  263  A    between atoms: _676  and  _677
REMARK  264  A    between atoms: _676  and  _679
REMARK  265  A    between atoms: _679  and  _680
REMARK  266  A    between atoms: _682  and  _684
REMARK  267  A    between atoms: _684  and  _685
REMARK  268  A    between atoms: _684  and  _687
REMARK  269  A    between atoms: _687  and  _688
REMARK  270  A    between atoms: _690  and  _692
REMARK  271  A    between atoms: _692  and  _693
REMARK  272  A    between atoms: _692  and  _695
REMARK  273  A    between atoms: _695  and  _696
REMARK                            x       y       z     vdW  Elec       q    Type
REMARK                         _______ _______ _______ _____ _____    ______ ____
ROOT
ATOM      1  CG  TRP A   1       6.148  -4.447  55.131  0.00  0.00    -0.002 A 
ATOM      2  CD1 TRP A   1       6.305  -5.653  54.500  0.00  0.00    +0.068 A 
ATOM      3  NE1 TRP A   1       6.422  -5.448  53.126  0.00  0.00    -0.352 N 
ATOM      4  CE2 TRP A   1       6.308  -4.102  52.871  0.00  0.00    +0.056 A 
ATOM      5  CZ2 TRP A   1       6.373  -3.394  51.651  0.00  0.00    +0.017 A 
ATOM      6  CH2 TRP A   1       6.241  -2.017  51.699  0.00  0.00    +0.001 A 
ATOM      7  CZ3 TRP A   1       6.051  -1.327  52.938  0.00  0.00    +0.000 A 
ATOM      8  CE3 TRP A   1       5.987  -2.035  54.143  0.00  0.00    +0.001 A 
ATOM      9  HE1 TRP A   1       6.571  -6.190  52.413  0.00  0.00    +0.166 HD
ATOM     10  CD2 TRP A   1       6.129  -3.448  54.116  0.00  0.00    +0.013 A 
ENDROOT
BRANCH   1  11
ATOM     11  CB  TRP A   1       5.911  -4.177  56.595  0.00  0.00    +0.053 C 
BRANCH  11  12
ATOM     12  CA  TRP A   1       6.193  -5.281  57.604  0.00  0.00    +0.137 C 
BRANCH  12  13
ATOM     13  N   TRP A   1       5.477  -6.537  57.308  0.00  0.00    -0.239 NA
ATOM     14  H   TRP A   1       4.720  -6.552  56.595  0.00  0.00    +0.142 HD
ENDBRANCH  12  13
BRANCH  12  15
ATOM     15  C   TRP A   1       5.826  -4.696  58.980  0.00  0.00    +0.224 C 
ATOM     16  O   TRP A   1       6.615  -3.928  59.544  0.00  0.00    -0.287 OA
ENDBRANCH  12  15
ENDBRANCH  11  12
ENDBRANCH   1  11
TORSDOF 4
REMARK  Name = ../refined-set-2016/3f5j/3f5j_pocket.pdb
REMARK  273 active torsions:
REMARK  status: ('A' for Active; 'I' for Inactive)
REMARK    1  A    between atoms: _1  and  _3
REMARK    2  A    between atoms: _3  and  _4
REMARK    3  A    between atoms: _3  and  _6
REMARK    4  A    between atoms: _9  and  _11
REMARK    5  A    between atoms: _11  and  _12
REMARK    6  A    between atoms: _11  and  _14
REMARK    7  A    between atoms: _14  and  _15
REMARK    8  A    between atoms: _18  and  _20
REMARK    9  A    between atoms: _20  and  _21
REMARK   10  A    between atoms: _20  and  _23
REMARK   11  A    between atoms: _23  and  _24
REMARK   12  A    between atoms: _26  and  _28
REMARK   13  A    between atoms: _28  and  _29
REMARK   14  A    between atoms: _28  and  _31
REMARK   15  A    between atoms: _31  and  _32
REMARK   16  A    between atoms: _32  and  _33
REMARK   17  A    between atoms: _38  and  _40
REMARK   18  A    between atoms: _40  and  _41
REMARK   19  A    between atoms: _40  and  _43
REMARK   20  A    between atoms: _43  and  _44
REMARK   21  A    between atoms: _44  and  _45
REMARK   22  A    between atoms: _45  and  _46
REMARK   23  A    between atoms: _55  and  _57
REMARK   24  A    between atoms: _57  and  _58
REMARK   25  A    between atoms: _57  and  _60
REMARK   26  A    between atoms: _60  and  _61
REMARK   27  A    between atoms: _63  and  _65
REMARK   28  A    between atoms: _65  and  _66
REMARK   29  A    between atoms: _65  and  _68
REMARK   30  A    between atoms: _68  and  _69
REMARK   31  A    between atoms: _74  and  _76
REMARK   32  A    between atoms: _76  and  _77
REMARK   33  A    between atoms: _76  and  _79
REMARK   34  A    between atoms: _79  and  _80
REMARK   35  A    between atoms: _85  and  _87
REMARK   36  A    between atoms: _87  and  _88
REMARK   37  A    between atoms: _87  and  _90
REMARK   38  A    between atoms: _90  and  _91
REMARK   39  A    between atoms: _96  and  _97
REMARK   40  A    between atoms: _99  and  _101
REMARK   41  A    between atoms: _101  and  _102
REMARK   42  A    between atoms: _101  and  _104
REMARK   43  A    between atoms: _104  and  _105
REMARK   44  A    between atoms: _110  and  _112
REMARK   45  A    between atoms: _112  and  _113
REMARK   46  A    between atoms: _112  and  _115
REMARK   47  A    between atoms: _115  and  _116
REMARK   48  A    between atoms: _116  and  _117
REMARK   49  A    between atoms: _122  and  _124
REMARK   50  A    between atoms: _124  and  _125
REMARK   51  A    between atoms: _124  and  _127
REMARK   52  A    between atoms: _127  and  _128
REMARK   53  A    between atoms: _128  and  _129
REMARK   54  A    between atoms: _129  and  _130
REMARK   55  A    between atoms: _139  and  _141
REMARK   56  A    between atoms: _141  and  _142
REMARK   57  A    between atoms: _141  and  _144
REMARK   58  A    between atoms: _144  and  _145
REMARK   59  A    between atoms: _148  and  _150
REMARK   60  A    between atoms: _150  and  _151
REMARK   61  A    between atoms: _150  and  _153
REMARK   62  A    between atoms: _153  and  _154
REMARK   63  A    between atoms: _157  and  _159
REMARK   64  A    between atoms: _159  and  _160
REMARK   65  A    between atoms: _159  and  _162
REMARK   66  A    between atoms: _162  and  _163
REMARK   67  A    between atoms: _166  and  _168
REMARK   68  A    between atoms: _168  and  _169
REMARK   69  A    between atoms: _168  and  _171
REMARK   70  A    between atoms: _171  and  _172
REMARK   71  A    between atoms: _175  and  _177
REMARK   72  A    between atoms: _177  and  _178
REMARK   73  A    between atoms: _177  and  _180
REMARK   74  A    between atoms: _180  and  _181
REMARK   75  A    between atoms: _181  and  _182
REMARK   76  A    between atoms: _187  and  _189
REMARK   77  A    between atoms: _189  and  _190
REMARK   78  A    between atoms: _189  and  _192
REMARK   79  A    between atoms: _192  and  _193
REMARK   80  A    between atoms: _196  and  _198
REMARK   81  A    between atoms: _198  and  _199
REMARK   82  A    between atoms: _198  and  _201
REMARK   83  A    between atoms: _201  and  _202
REMARK   84  A    between atoms: _207  and  _209
REMARK   85  A    between atoms: _209  and  _210
REMARK   86  A    between atoms: _209  and  _212
REMARK   87  A    between atoms: _215  and  _217
REMARK   88  A    between atoms: _217  and  _218
REMARK   89  A    between atoms: _217  and  _220
REMARK   90  A    between atoms: _220  and  _221
REMARK   91  A    between atoms: _224  and  _226
REMARK   92  A    between atoms: _226  and  _227
REMARK   93  A    between atoms: _226  and  _229
REMARK   94  A    between atoms: _229  and  _230
REMARK   95  A    between atoms: _233  and  _235
REMARK   96  A    between atoms: _235  and  _236
REMARK   97  A    between atoms: _235  and  _238
REMARK   98  A    between atoms: _238  and  _239
REMARK   99  A    between atoms: _245  and  _247
REMARK  100  A    between atoms: _247  and  _248
REMARK  101  A    between atoms: _247  and  _250
REMARK  102  A    between atoms: _250  and  _251
REMARK  103  A    between atoms: _256  and  _258
REMARK  104  A    between atoms: _258  and  _259
REMARK  105  A    between atoms: _258  and  _261
REMARK  106  A    between atoms: _261  and  _262
REMARK  107  A    between atoms: _272  and  _274
REMARK  108  A    between atoms: _274  and  _275
REMARK  109  A    between atoms: _274  and  _277
REMARK  110  A    between atoms: _277  and  _278
REMARK  111  A    between atoms: _283  and  _284
REMARK  112  A    between atoms: _286  and  _288
REMARK  113  A    between atoms: _288  and  _289
REMARK  114  A    between atoms: _288  and  _291
REMARK  115  A    between atoms: _291  and  _292
REMARK  116  A    between atoms: _297  and  _299
REMARK  117  A    between atoms: _299  and  _300
REMARK  118  A    between atoms: _299  and  _302
REMARK  119  A    between atoms: _302  and  _303
REMARK  120  A    between atoms: _308  and  _310
REMARK  121  A    between atoms: _310  and  _311
REMARK  122  A    between atoms: _310  and  _313
REMARK  123  A    between atoms: _313  and  _314
REMARK  124  A    between atoms: _314  and  _315
REMARK  125  A    between atoms: _320  and  _322
REMARK  126  A    between atoms: _322  and  _323
REMARK  127  A    between atoms: _322  and  _325
REMARK  128  A    between atoms: _325  and  _326
REMARK  129  A    between atoms: _331  and  _332
REMARK  130  A    between atoms: _334  and  _336
REMARK  131  A    between atoms: _336  and  _337
REMARK  132  A    between atoms: _336  and  _339
REMARK  133  A    between atoms: _339  and  _340
REMARK  134  A    between atoms: _343  and  _345
REMARK  135  A    between atoms: _345  and  _346
REMARK  136  A    between atoms: _349  and  _351
REMARK  137  A    between atoms: _351  and  _352
REMARK  138  A    between atoms: _351  and  _354
REMARK  139  A    between atoms: _354  and  _355
REMARK  140  A    between atoms: _357  and  _359
REMARK  141  A    between atoms: _359  and  _360
REMARK  142  A    between atoms: _359  and  _362
REMARK  143  A    between atoms: _362  and  _363
REMARK  144  A    between atoms: _363  and  _364
REMARK  145  A    between atoms: _366  and  _368
REMARK  146  A    between atoms: _368  and  _369
REMARK  147  A    between atoms: _368  and  _371
REMARK  148  A    between atoms: _371  and  _372
REMARK  149  A    between atoms: _374  and  _376
REMARK  150  A    between atoms: _376  and  _377
REMARK  151  A    between atoms: _376  and  _379
REMARK  152  A    between atoms: _379  and  _380
REMARK  153  A    between atoms: _385  and  _386
REMARK  154  A    between atoms: _388  and  _390
REMARK  155  A    between atoms: _390  and  _391
REMARK  156  A    between atoms: _390  and  _393
REMARK  157  A    between atoms: _393  and  _394
REMARK  158  A    between atoms: _396  and  _398
REMARK  159  A    between atoms: _398  and  _399
REMARK  160  A    between atoms: _402  and  _404
REMARK  161  A    between atoms: _404  and  _405
REMARK  162  A    between atoms: _404  and  _407
REMARK  163  A    between atoms: _407  and  _408
REMARK  164  A    between atoms: _418  and  _420
REMARK  165  A    between atoms: _420  and  _421
REMARK  166  A    between atoms: _420  and  _423
REMARK  167  A    between atoms: _426  and  _428
REMARK  168  A    between atoms: _428  and  _429
REMARK  169  A    between atoms: _428  and  _431
REMARK  170  A    between atoms: _431  and  _432
REMARK  171  A    between atoms: _435  and  _437
REMARK  172  A    between atoms: _437  and  _438
REMARK  173  A    between atoms: _437  and  _440
REMARK  174  A    between atoms: _440  and  _441
REMARK  175  A    between atoms: _446  and  _447
REMARK  176  A    between atoms: _449  and  _451
REMARK  177  A    between atoms: _451  and  _452
REMARK  178  A    between atoms: _451  and  _454
REMARK  179  A    between atoms: _457  and  _459
REMARK  180  A    between atoms: _459  and  _460
REMARK  181  A    between atoms: _459  and  _462
REMARK  182  A    between atoms: _462  and  _463
REMARK  183  A    between atoms: _469  and  _471
REMARK  184  A    between atoms: _471  and  _472
REMARK  185  A    between atoms: _471  and  _474
REMARK  186  A    between atoms: _474  and  _475
REMARK  187  A    between atoms: _475  and  _476
REMARK  188  A    between atoms: _481  and  _483
REMARK  189  A    between atoms: _483  and  _484
REMARK  190  A    between atoms: _483  and  _486
REMARK  191  A    between atoms: _486  and  _487
REMARK  192  A    between atoms: _489  and  _491
REMARK  193  A    between atoms: _491  and  _492
REMARK  194  A    between atoms: _491  and  _494
REMARK  195  A    between atoms: _494  and  _495
REMARK  196  A    between atoms: _500  and  _502
REMARK  197  A    between atoms: _502  and  _503
REMARK  198  A    between atoms: _502  and  _505
REMARK  199  A    between atoms: _505  and  _506
REMARK  200  A    between atoms: _516  and  _518
REMARK  201  A    between atoms: _518  and  _519
REMARK  202  A    between atoms: _518  and  _521
REMARK  203  A    between atoms: _521  and  _522
REMARK  204  A    between atoms: _525  and  _527
REMARK  205  A    between atoms: _527  and  _528
REMARK  206  A    between atoms: _527  and  _530
REMARK  207  A    between atoms: _530  and  _531
REMARK  208  A    between atoms: _536  and  _537
REMARK  209  A    between atoms: _539  and  _541
REMARK  210  A    between atoms: _541  and  _542
REMARK  211  A    between atoms: _541  and  _544
REMARK  212  A    between atoms: _544  and  _545
REMARK  213  A    between atoms: _548  and  _550
REMARK  214  A    between atoms: _550  and  _551
REMARK  215  A    between atoms: _550  and  _553
REMARK  216  A    between atoms: _553  and  _554
REMARK  217  A    between atoms: _554  and  _555
REMARK  218  A    between atoms: _558  and  _560
REMARK  219  A    between atoms: _560  and  _561
REMARK  220  A    between atoms: _560  and  _563
REMARK  221  A    between atoms: _563  and  _564
REMARK  222  A    between atoms: _569  and  _571
REMARK  223  A    between atoms: _571  and  _572
REMARK  224  A    between atoms: _574  and  _576
REMARK  225  A    between atoms: _576  and  _577
REMARK  226  A    between atoms: _576  and  _579
REMARK  227  A    between atoms: _579  and  _580
REMARK  228  A    between atoms: _580  and  _581
REMARK  229  A    between atoms: _583  and  _585
REMARK  230  A    between atoms: _585  and  _586
REMARK  231  A    between atoms: _585  and  _588
REMARK  232  A    between atoms: _588  and  _589
REMARK  233  A    between atoms: _592  and  _594
REMARK  234  A    between atoms: _594  and  _595
REMARK  235  A    between atoms: _594  and  _597
REMARK  236  A    between atoms: _597  and  _598
REMARK  237  A    between atoms: _608  and  _610
REMARK  238  A    between atoms: _610  and  _611
REMARK  239  A    between atoms: _610  and  _613
REMARK  240  A    between atoms: _613  and  _614
REMARK  241  A    between atoms: _616  and  _618
REMARK  242  A    between atoms: _618  and  _619
REMARK  243  A    between atoms: _618  and  _621
REMARK  244  A    between atoms: _621  and  _622
REMARK  245  A    between atoms: _627  and  _629
REMARK  246  A    between atoms: _629  and  _630
REMARK  247  A    between atoms: _629  and  _632
REMARK  248  A    between atoms: _632  and  _633
REMARK  249  A    between atoms: _639  and  _641
REMARK  250  A    between atoms: _641  and  _642
REMARK  251  A    between atoms: _641  and  _644
REMARK  252  A    between atoms: _644  and  _645
REMARK  253  A    between atoms: _645  and  _646
REMARK  254  A    between atoms: _649  and  _651
REMARK  255  A    between atoms: _651  and  _652
REMARK  256  A    between atoms: _651  and  _654
REMARK  257  A    between atoms: _654  and  _655
REMARK  258  A    between atoms: _665  and  _667
REMARK  259  A    between atoms: _667  and  _668
REMARK  260  A    between atoms: _667  and  _670
REMARK  261  A    between atoms: _670  and  _671
REMARK  262  A    between atoms: _674  and  _676
REMARK  263  A    between atoms: _676  and  _677
REMARK  264  A    between atoms: _676  and  _679
REMARK  265  A    between atoms: _679  and  _680
REMARK  266  A    between atoms: _682  and  _684
REMARK  267  A    between atoms: _684  and  _685
REMARK  268  A    between atoms: _684  and  _687
REMARK  269  A    between atoms: _687  and  _688
REMARK  270  A    between atoms: _690  and  _692
REMARK  271  A    between atoms: _692  and  _693
REMARK  272  A    between atoms: _692  and  _695
REMARK  273  A    between atoms: _695  and  _696
REMARK                            x       y       z     vdW  Elec       q    Type
REMARK                         _______ _______ _______ _____ _____    ______ ____
ROOT
ATOM      1  CA  TYR A   3       0.163   3.515  56.072  0.00  0.00    +0.153 C 
ENDROOT
BRANCH   1   4
ATOM      2  C   THR A   2       0.644   2.470  58.233  0.00  0.00    +0.243 C 
ATOM      3  O   THR A   2       1.336   3.422  58.596  0.00  0.00    -0.273 OA
ATOM      4  N   TYR A   3       0.106   2.400  57.012  0.00  0.00    -0.297 N 
ATOM      5  H   TYR A   3      -0.369   1.522  56.722  0.00  0.00    +0.150 HD
BRANCH   2   6
ATOM      6  CA  THR A   2       0.386   1.295  59.193  0.00  0.00    +0.176 C 
BRANCH   6   8
ATOM      7  C   VAL A   1       1.985  -0.559  59.345  0.00  0.00    +0.238 C 
ATOM      8  N   THR A   2       1.642   0.704  59.613  0.00  0.00    -0.295 N 
ATOM      9  H   THR A   2       2.310   1.293  60.150  0.00  0.00    +0.150 HD
ATOM     10  O   VAL A   1       1.230  -1.388  58.802  0.00  0.00    -0.274 OA
BRANCH   7  11
ATOM     11  CA  VAL A   1       3.387  -0.921  59.709  0.00  0.00    +0.145 C 
BRANCH  11  12
ATOM     12  CB  VAL A   1       4.369  -0.284  58.635  0.00  0.00    +0.025 C 
ATOM     13  CG2 VAL A   1       5.820  -0.648  58.940  0.00  0.00    +0.002 C 
ATOM     14  CG1 VAL A   1       3.960  -0.695  57.171  0.00  0.00    +0.002 C 
ENDBRANCH  11  12
BRANCH  11  15
ATOM     15  N   VAL A   1       3.478  -2.368  59.774  0.00  0.00    -0.238 NA
ATOM     16  H   VAL A   1       3.088  -2.938  58.996  0.00  0.00    +0.142 HD
ENDBRANCH  11  15
ENDBRANCH   7  11
ENDBRANCH   6   8
BRANCH   6  17
ATOM     17  CB  THR A   2      -0.365   1.814  60.433  0.00  0.00    +0.137 C 
ATOM     18  CG2 THR A   2      -1.650   2.472  60.048  0.00  0.00    +0.034 C 
BRANCH  17  19
ATOM     19  OG1 THR A   2      -0.639   0.718  61.315  0.00  0.00    -0.382 OA
ATOM     20  HG1 THR A   2      -1.122   1.051  62.113  0.00  0.00    +0.210 HD
ENDBRANCH  17  19
ENDBRANCH   6  17
ENDBRANCH   2   6
ENDBRANCH   1   4
BRANCH   1  21
ATOM     21  C   TYR A   3      -0.711   4.647  56.586  0.00  0.00    +0.241 C 
ATOM     22  O   TYR A   3      -1.766   4.394  57.137  0.00  0.00    -0.273 OA
ATOM     23  N   VAL A   4      -0.238   5.885  56.442  0.00  0.00    -0.297 N 
ATOM     24  H   VAL A   4       0.723   6.013  56.064  0.00  0.00    +0.150 HD
BRANCH  23  25
ATOM     25  CA  VAL A   4      -1.021   7.075  56.796  0.00  0.00    +0.149 C 
BRANCH  25  26
ATOM     26  C   VAL A   4      -0.805   8.096  55.679  0.00  0.00    +0.241 C 
ATOM     27  N   PHE A   5      -1.871   8.746  55.218  0.00  0.00    -0.298 N 
ATOM     28  H   PHE A   5      -2.805   8.565  55.638  0.00  0.00    +0.150 HD
ATOM     29  O   VAL A   4       0.324   8.265  55.210  0.00  0.00    -0.273 OA
BRANCH  27  30
ATOM     30  CA  PHE A   5      -1.742   9.721  54.117  0.00  0.00    +0.141 C 
BRANCH  30  31
ATOM     31  C   PHE A   5      -2.052  11.165  54.455  0.00  0.00    +0.227 C 
ATOM     32  O   PHE A   5      -2.169  11.990  53.549  0.00  0.00    -0.286 OA
ENDBRANCH  30  31
BRANCH  30  33
ATOM     33  CB  PHE A   5      -2.534   9.263  52.880  0.00  0.00    +0.054 C 
BRANCH  33  34
ATOM     34  CG  PHE A   5      -1.984   8.022  52.280  0.00  0.00    -0.020 A 
ATOM     35  CD2 PHE A   5      -2.456   6.779  52.687  0.00  0.00    -0.004 A 
ATOM     36  CE2 PHE A   5      -1.927   5.600  52.178  0.00  0.00    -0.000 A 
ATOM     37  CZ  PHE A   5      -0.900   5.665  51.241  0.00  0.00    -0.000 A 
ATOM     38  CE1 PHE A   5      -0.388   6.915  50.842  0.00  0.00    -0.000 A 
ATOM     39  CD1 PHE A   5      -0.935   8.095  51.376  0.00  0.00    -0.004 A 
ENDBRANCH  33  34
ENDBRANCH  30  33
ENDBRANCH  27  30
ENDBRANCH  25  26
BRANCH  25  40
ATOM     40  CB  VAL A   4      -0.584   7.647  58.205  0.00  0.00    +0.027 C 
ATOM     41  CG2 VAL A   4      -1.059   6.731  59.340  0.00  0.00    +0.002 C 
ATOM     42  CG1 VAL A   4      -1.109   9.070  58.399  0.00  0.00    +0.002 C 
ENDBRANCH  25  40
ENDBRANCH  23  25
ENDBRANCH   1  21
BRANCH   1  43
ATOM     43  CB  TYR A   3      -0.333   3.087  54.678  0.00  0.00    +0.055 C 
BRANCH  43  44
ATOM     44  CG  TYR A   3       0.631   2.174  53.923  0.00  0.00    -0.020 A 
ATOM     45  CD2 TYR A   3       0.841   0.845  54.338  0.00  0.00    -0.001 A 
ATOM     46  CE2 TYR A   3       1.717  -0.008  53.643  0.00  0.00    +0.036 A 
ATOM     47  CZ  TYR A   3       2.398   0.470  52.517  0.00  0.00    +0.134 A 
ATOM     48  CE1 TYR A   3       2.223   1.798  52.076  0.00  0.00    +0.036 A 
ATOM     49  CD1 TYR A   3       1.337   2.642  52.795  0.00  0.00    -0.001 A 
BRANCH  47  50
ATOM     50  OH  TYR A   3       3.262  -0.387  51.858  0.00  0.00    -0.506 OA
ATOM     51  HH  TYR A   3       2.969  -0.490  50.918  0.00  0.00    +0.292 HD
ENDBRANCH  47  50
ENDBRANCH  43  44
ENDBRANCH   1  43
TORSDOF 19
REMARK  Name = ../refined-set-2016/3f5j/3f5j_pocket.pdb
REMARK  273 active torsions:
REMARK  status: ('A' for Active; 'I' for Inactive)
REMARK    1  A    between atoms: _1  and  _3
REMARK    2  A    between atoms: _3  and  _4
REMARK    3  A    between atoms: _3  and  _6
REMARK    4  A    between atoms: _9  and  _11
REMARK    5  A    between atoms: _11  and  _12
REMARK    6  A    between atoms: _11  and  _14
REMARK    7  A    between atoms: _14  and  _15
REMARK    8  A    between atoms: _18  and  _20
REMARK    9  A    between atoms: _20  and  _21
REMARK   10  A    between atoms: _20  and  _23
REMARK   11  A    between atoms: _23  and  _24
REMARK   12  A    between atoms: _26  and  _28
REMARK   13  A    between atoms: _28  and  _29
REMARK   14  A    between atoms: _28  and  _31
REMARK   15  A    between atoms: _31  and  _32
REMARK   16  A    between atoms: _32  and  _33
REMARK   17  A    between atoms: _38  and  _40
REMARK   18  A    between atoms: _40  and  _41
REMARK   19  A    between atoms: _40  and  _43
REMARK   20  A    between atoms: _43  and  _44
REMARK   21  A    between atoms: _44  and  _45
REMARK   22  A    between atoms: _45  and  _46
REMARK   23  A    between atoms: _55  and  _57
REMARK   24  A    between atoms: _57  and  _58
REMARK   25  A    between atoms: _57  and  _60
REMARK   26  A    between atoms: _60  and  _61
REMARK   27  A    between atoms: _63  and  _65
REMARK   28  A    between atoms: _65  and  _66
REMARK   29  A    between atoms: _65  and  _68
REMARK   30  A    between atoms: _68  and  _69
REMARK   31  A    between atoms: _74  and  _76
REMARK   32  A    between atoms: _76  and  _77
REMARK   33  A    between atoms: _76  and  _79
REMARK   34  A    between atoms: _79  and  _80
REMARK   35  A    between atoms: _85  and  _87
REMARK   36  A    between atoms: _87  and  _88
REMARK   37  A    between atoms: _87  and  _90
REMARK   38  A    between atoms: _90  and  _91
REMARK   39  A    between atoms: _96  and  _97
REMARK   40  A    between atoms: _99  and  _101
REMARK   41  A    between atoms: _101  and  _102
REMARK   42  A    between atoms: _101  and  _104
REMARK   43  A    between atoms: _104  and  _105
REMARK   44  A    between atoms: _110  and  _112
REMARK   45  A    between atoms: _112  and  _113
REMARK   46  A    between atoms: _112  and  _115
REMARK   47  A    between atoms: _115  and  _116
REMARK   48  A    between atoms: _116  and  _117
REMARK   49  A    between atoms: _122  and  _124
REMARK   50  A    between atoms: _124  and  _125
REMARK   51  A    between atoms: _124  and  _127
REMARK   52  A    between atoms: _127  and  _128
REMARK   53  A    between atoms: _128  and  _129
REMARK   54  A    between atoms: _129  and  _130
REMARK   55  A    between atoms: _139  and  _141
REMARK   56  A    between atoms: _141  and  _142
REMARK   57  A    between atoms: _141  and  _144
REMARK   58  A    between atoms: _144  and  _145
REMARK   59  A    between atoms: _148  and  _150
REMARK   60  A    between atoms: _150  and  _151
REMARK   61  A    between atoms: _150  and  _153
REMARK   62  A    between atoms: _153  and  _154
REMARK   63  A    between atoms: _157  and  _159
REMARK   64  A    between atoms: _159  and  _160
REMARK   65  A    between atoms: _159  and  _162
REMARK   66  A    between atoms: _162  and  _163
REMARK   67  A    between atoms: _166  and  _168
REMARK   68  A    between atoms: _168  and  _169
REMARK   69  A    between atoms: _168  and  _171
REMARK   70  A    between atoms: _171  and  _172
REMARK   71  A    between atoms: _175  and  _177
REMARK   72  A    between atoms: _177  and  _178
REMARK   73  A    between atoms: _177  and  _180
REMARK   74  A    between atoms: _180  and  _181
REMARK   75  A    between atoms: _181  and  _182
REMARK   76  A    between atoms: _187  and  _189
REMARK   77  A    between atoms: _189  and  _190
REMARK   78  A    between atoms: _189  and  _192
REMARK   79  A    between atoms: _192  and  _193
REMARK   80  A    between atoms: _196  and  _198
REMARK   81  A    between atoms: _198  and  _199
REMARK   82  A    between atoms: _198  and  _201
REMARK   83  A    between atoms: _201  and  _202
REMARK   84  A    between atoms: _207  and  _209
REMARK   85  A    between atoms: _209  and  _210
REMARK   86  A    between atoms: _209  and  _212
REMARK   87  A    between atoms: _215  and  _217
REMARK   88  A    between atoms: _217  and  _218
REMARK   89  A    between atoms: _217  and  _220
REMARK   90  A    between atoms: _220  and  _221
REMARK   91  A    between atoms: _224  and  _226
REMARK   92  A    between atoms: _226  and  _227
REMARK   93  A    between atoms: _226  and  _229
REMARK   94  A    between atoms: _229  and  _230
REMARK   95  A    between atoms: _233  and  _235
REMARK   96  A    between atoms: _235  and  _236
REMARK   97  A    between atoms: _235  and  _238
REMARK   98  A    between atoms: _238  and  _239
REMARK   99  A    between atoms: _245  and  _247
REMARK  100  A    between atoms: _247  and  _248
REMARK  101  A    between atoms: _247  and  _250
REMARK  102  A    between atoms: _250  and  _251
REMARK  103  A    between atoms: _256  and  _258
REMARK  104  A    between atoms: _258  and  _259
REMARK  105  A    between atoms: _258  and  _261
REMARK  106  A    between atoms: _261  and  _262
REMARK  107  A    between atoms: _272  and  _274
REMARK  108  A    between atoms: _274  and  _275
REMARK  109  A    between atoms: _274  and  _277
REMARK  110  A    between atoms: _277  and  _278
REMARK  111  A    between atoms: _283  and  _284
REMARK  112  A    between atoms: _286  and  _288
REMARK  113  A    between atoms: _288  and  _289
REMARK  114  A    between atoms: _288  and  _291
REMARK  115  A    between atoms: _291  and  _292
REMARK  116  A    between atoms: _297  and  _299
REMARK  117  A    between atoms: _299  and  _300
REMARK  118  A    between atoms: _299  and  _302
REMARK  119  A    between atoms: _302  and  _303
REMARK  120  A    between atoms: _308  and  _310
REMARK  121  A    between atoms: _310  and  _311
REMARK  122  A    between atoms: _310  and  _313
REMARK  123  A    between atoms: _313  and  _314
REMARK  124  A    between atoms: _314  and  _315
REMARK  125  A    between atoms: _320  and  _322
REMARK  126  A    between atoms: _322  and  _323
REMARK  127  A    between atoms: _322  and  _325
REMARK  128  A    between atoms: _325  and  _326
REMARK  129  A    between atoms: _331  and  _332
REMARK  130  A    between atoms: _334  and  _336
REMARK  131  A    between atoms: _336  and  _337
REMARK  132  A    between atoms: _336  and  _339
REMARK  133  A    between atoms: _339  and  _340
REMARK  134  A    between atoms: _343  and  _345
REMARK  135  A    between atoms: _345  and  _346
REMARK  136  A    between atoms: _349  and  _351
REMARK  137  A    between atoms: _351  and  _352
REMARK  138  A    between atoms: _351  and  _354
REMARK  139  A    between atoms: _354  and  _355
REMARK  140  A    between atoms: _357  and  _359
REMARK  141  A    between atoms: _359  and  _360
REMARK  142  A    between atoms: _359  and  _362
REMARK  143  A    between atoms: _362  and  _363
REMARK  144  A    between atoms: _363  and  _364
REMARK  145  A    between atoms: _366  and  _368
REMARK  146  A    between atoms: _368  and  _369
REMARK  147  A    between atoms: _368  and  _371
REMARK  148  A    between atoms: _371  and  _372
REMARK  149  A    between atoms: _374  and  _376
REMARK  150  A    between atoms: _376  and  _377
REMARK  151  A    between atoms: _376  and  _379
REMARK  152  A    between atoms: _379  and  _380
REMARK  153  A    between atoms: _385  and  _386
REMARK  154  A    between atoms: _388  and  _390
REMARK  155  A    between atoms: _390  and  _391
REMARK  156  A    between atoms: _390  and  _393
REMARK  157  A    between atoms: _393  and  _394
REMARK  158  A    between atoms: _396  and  _398
REMARK  159  A    between atoms: _398  and  _399
REMARK  160  A    between atoms: _402  and  _404
REMARK  161  A    between atoms: _404  and  _405
REMARK  162  A    between atoms: _404  and  _407
REMARK  163  A    between atoms: _407  and  _408
REMARK  164  A    between atoms: _418  and  _420
REMARK  165  A    between atoms: _420  and  _421
REMARK  166  A    between atoms: _420  and  _423
REMARK  167  A    between atoms: _426  and  _428
REMARK  168  A    between atoms: _428  and  _429
REMARK  169  A    between atoms: _428  and  _431
REMARK  170  A    between atoms: _431  and  _432
REMARK  171  A    between atoms: _435  and  _437
REMARK  172  A    between atoms: _437  and  _438
REMARK  173  A    between atoms: _437  and  _440
REMARK  174  A    between atoms: _440  and  _441
REMARK  175  A    between atoms: _446  and  _447
REMARK  176  A    between atoms: _449  and  _451
REMARK  177  A    between atoms: _451  and  _452
REMARK  178  A    between atoms: _451  and  _454
REMARK  179  A    between atoms: _457  and  _459
REMARK  180  A    between atoms: _459  and  _460
REMARK  181  A    between atoms: _459  and  _462
REMARK  182  A    between atoms: _462  and  _463
REMARK  183  A    between atoms: _469  and  _471
REMARK  184  A    between atoms: _471  and  _472
REMARK  185  A    between atoms: _471  and  _474
REMARK  186  A    between atoms: _474  and  _475
REMARK  187  A    between atoms: _475  and  _476
REMARK  188  A    between atoms: _481  and  _483
REMARK  189  A    between atoms: _483  and  _484
REMARK  190  A    between atoms: _483  and  _486
REMARK  191  A    between atoms: _486  and  _487
REMARK  192  A    between atoms: _489  and  _491
REMARK  193  A    between atoms: _491  and  _492
REMARK  194  A    between atoms: _491  and  _494
REMARK  195  A    between atoms: _494  and  _495
REMARK  196  A    between atoms: _500  and  _502
REMARK  197  A    between atoms: _502  and  _503
REMARK  198  A    between atoms: _502  and  _505
REMARK  199  A    between atoms: _505  and  _506
REMARK  200  A    between atoms: _516  and  _518
REMARK  201  A    between atoms: _518  and  _519
REMARK  202  A    between atoms: _518  and  _521
REMARK  203  A    between atoms: _521  and  _522
REMARK  204  A    between atoms: _525  and  _527
REMARK  205  A    between atoms: _527  and  _528
REMARK  206  A    between atoms: _527  and  _530
REMARK  207  A    between atoms: _530  and  _531
REMARK  208  A    between atoms: _536  and  _537
REMARK  209  A    between atoms: _539  and  _541
REMARK  210  A    between atoms: _541  and  _542
REMARK  211  A    between atoms: _541  and  _544
REMARK  212  A    between atoms: _544  and  _545
REMARK  213  A    between atoms: _548  and  _550
REMARK  214  A    between atoms: _550  and  _551
REMARK  215  A    between atoms: _550  and  _553
REMARK  216  A    between atoms: _553  and  _554
REMARK  217  A    between atoms: _554  and  _555
REMARK  218  A    between atoms: _558  and  _560
REMARK  219  A    between atoms: _560  and  _561
REMARK  220  A    between atoms: _560  and  _563
REMARK  221  A    between atoms: _563  and  _564
REMARK  222  A    between atoms: _569  and  _571
REMARK  223  A    between atoms: _571  and  _572
REMARK  224  A    between atoms: _574  and  _576
REMARK  225  A    between atoms: _576  and  _577
REMARK  226  A    between atoms: _576  and  _579
REMARK  227  A    between atoms: _579  and  _580
REMARK  228  A    between atoms: _580  and  _581
REMARK  229  A    between atoms: _583  and  _585
REMARK  230  A    between atoms: _585  and  _586
REMARK  231  A    between atoms: _585  and  _588
REMARK  232  A    between atoms: _588  and  _589
REMARK  233  A    between atoms: _592  and  _594
REMARK  234  A    between atoms: _594  and  _595
REMARK  235  A    between atoms: _594  and  _597
REMARK  236  A    between atoms: _597  and  _598
REMARK  237  A    between atoms: _608  and  _610
REMARK  238  A    between atoms: _610  and  _611
REMARK  239  A    between atoms: _610  and  _613
REMARK  240  A    between atoms: _613  and  _614
REMARK  241  A    between atoms: _616  and  _618
REMARK  242  A    between atoms: _618  and  _619
REMARK  243  A    between atoms: _618  and  _621
REMARK  244  A    between atoms: _621  and  _622
REMARK  245  A    between atoms: _627  and  _629
REMARK  246  A    between atoms: _629  and  _630
REMARK  247  A    between atoms: _629  and  _632
REMARK  248  A    between atoms: _632  and  _633
REMARK  249  A    between atoms: _639  and  _641
REMARK  250  A    between atoms: _641  and  _642
REMARK  251  A    between atoms: _641  and  _644
REMARK  252  A    between atoms: _644  and  _645
REMARK  253  A    between atoms: _645  and  _646
REMARK  254  A    between atoms: _649  and  _651
REMARK  255  A    between atoms: _651  and  _652
REMARK  256  A    between atoms: _651  and  _654
REMARK  257  A    between atoms: _654  and  _655
REMARK  258  A    between atoms: _665  and  _667
REMARK  259  A    between atoms: _667  and  _668
REMARK  260  A    between atoms: _667  and  _670
REMARK  261  A    between atoms: _670  and  _671
REMARK  262  A    between atoms: _674  and  _676
REMARK  263  A    between atoms: _676  and  _677
REMARK  264  A    between atoms: _676  and  _679
REMARK  265  A    between atoms: _679  and  _680
REMARK  266  A    between atoms: _682  and  _684
REMARK  267  A    between atoms: _684  and  _685
REMARK  268  A    between atoms: _684  and  _687
REMARK  269  A    between atoms: _687  and  _688
REMARK  270  A    between atoms: _690  and  _692
REMARK  271  A    between atoms: _692  and  _693
REMARK  272  A    between atoms: _692  and  _695
REMARK  273  A    between atoms: _695  and  _696
REMARK                            x       y       z     vdW  Elec       q    Type
REMARK                         _______ _______ _______ _____ _____    ______ ____
ROOT
ATOM      1  CB  GLN A   1      -4.778  11.327  44.354  0.00  0.00    +0.035 C 
ENDROOT
BRANCH   1   2
ATOM      2  CA  GLN A   1      -3.673  12.295  44.022  0.00  0.00    +0.134 C 
BRANCH   2   3
ATOM      3  N   GLN A   1      -3.831  13.489  44.834  0.00  0.00    -0.239 NA
ATOM      4  H   GLN A   1      -4.788  13.779  45.120  0.00  0.00    +0.142 HD
ENDBRANCH   2   3
BRANCH   2   5
ATOM      5  C   GLN A   1      -3.760  12.638  42.547  0.00  0.00    +0.224 C 
ATOM      6  O   GLN A   1      -4.527  13.526  42.170  0.00  0.00    -0.287 OA
ENDBRANCH   2   5
ENDBRANCH   1   2
BRANCH   1   7
ATOM      7  CG  GLN A   1      -4.500  10.564  45.659  0.00  0.00    +0.087 C 
BRANCH   7   8
ATOM      8  CD  GLN A   1      -5.750   9.907  46.143  0.00  0.00    +0.219 C 
ATOM      9  NE2 GLN A   1      -6.733  10.704  46.468  0.00  0.00    -0.329 N 
ATOM     10 HE21 GLN A   1      -7.648  10.308  46.765  0.00  0.00    +0.145 HD
ATOM     11 HE22 GLN A   1      -6.601  11.735  46.430  0.00  0.00    +0.145 HD
ATOM     12  OE1 GLN A   1      -5.852   8.685  46.170  0.00  0.00    -0.275 OA
ENDBRANCH   7   8
ENDBRANCH   1   7
TORSDOF 5
REMARK  Name = ../refined-set-2016/3f5j/3f5j_pocket.pdb
REMARK  273 active torsions:
REMARK  status: ('A' for Active; 'I' for Inactive)
REMARK    1  A    between atoms: _1  and  _3
REMARK    2  A    between atoms: _3  and  _4
REMARK    3  A    between atoms: _3  and  _6
REMARK    4  A    between atoms: _9  and  _11
REMARK    5  A    between atoms: _11  and  _12
REMARK    6  A    between atoms: _11  and  _14
REMARK    7  A    between atoms: _14  and  _15
REMARK    8  A    between atoms: _18  and  _20
REMARK    9  A    between atoms: _20  and  _21
REMARK   10  A    between atoms: _20  and  _23
REMARK   11  A    between atoms: _23  and  _24
REMARK   12  A    between atoms: _26  and  _28
REMARK   13  A    between atoms: _28  and  _29
REMARK   14  A    between atoms: _28  and  _31
REMARK   15  A    between atoms: _31  and  _32
REMARK   16  A    between atoms: _32  and  _33
REMARK   17  A    between atoms: _38  and  _40
REMARK   18  A    between atoms: _40  and  _41
REMARK   19  A    between atoms: _40  and  _43
REMARK   20  A    between atoms: _43  and  _44
REMARK   21  A    between atoms: _44  and  _45
REMARK   22  A    between atoms: _45  and  _46
REMARK   23  A    between atoms: _55  and  _57
REMARK   24  A    between atoms: _57  and  _58
REMARK   25  A    between atoms: _57  and  _60
REMARK   26  A    between atoms: _60  and  _61
REMARK   27  A    between atoms: _63  and  _65
REMARK   28  A    between atoms: _65  and  _66
REMARK   29  A    between atoms: _65  and  _68
REMARK   30  A    between atoms: _68  and  _69
REMARK   31  A    between atoms: _74  and  _76
REMARK   32  A    between atoms: _76  and  _77
REMARK   33  A    between atoms: _76  and  _79
REMARK   34  A    between atoms: _79  and  _80
REMARK   35  A    between atoms: _85  and  _87
REMARK   36  A    between atoms: _87  and  _88
REMARK   37  A    between atoms: _87  and  _90
REMARK   38  A    between atoms: _90  and  _91
REMARK   39  A    between atoms: _96  and  _97
REMARK   40  A    between atoms: _99  and  _101
REMARK   41  A    between atoms: _101  and  _102
REMARK   42  A    between atoms: _101  and  _104
REMARK   43  A    between atoms: _104  and  _105
REMARK   44  A    between atoms: _110  and  _112
REMARK   45  A    between atoms: _112  and  _113
REMARK   46  A    between atoms: _112  and  _115
REMARK   47  A    between atoms: _115  and  _116
REMARK   48  A    between atoms: _116  and  _117
REMARK   49  A    between atoms: _122  and  _124
REMARK   50  A    between atoms: _124  and  _125
REMARK   51  A    between atoms: _124  and  _127
REMARK   52  A    between atoms: _127  and  _128
REMARK   53  A    between atoms: _128  and  _129
REMARK   54  A    between atoms: _129  and  _130
REMARK   55  A    between atoms: _139  and  _141
REMARK   56  A    between atoms: _141  and  _142
REMARK   57  A    between atoms: _141  and  _144
REMARK   58  A    between atoms: _144  and  _145
REMARK   59  A    between atoms: _148  and  _150
REMARK   60  A    between atoms: _150  and  _151
REMARK   61  A    between atoms: _150  and  _153
REMARK   62  A    between atoms: _153  and  _154
REMARK   63  A    between atoms: _157  and  _159
REMARK   64  A    between atoms: _159  and  _160
REMARK   65  A    between atoms: _159  and  _162
REMARK   66  A    between atoms: _162  and  _163
REMARK   67  A    between atoms: _166  and  _168
REMARK   68  A    between atoms: _168  and  _169
REMARK   69  A    between atoms: _168  and  _171
REMARK   70  A    between atoms: _171  and  _172
REMARK   71  A    between atoms: _175  and  _177
REMARK   72  A    between atoms: _177  and  _178
REMARK   73  A    between atoms: _177  and  _180
REMARK   74  A    between atoms: _180  and  _181
REMARK   75  A    between atoms: _181  and  _182
REMARK   76  A    between atoms: _187  and  _189
REMARK   77  A    between atoms: _189  and  _190
REMARK   78  A    between atoms: _189  and  _192
REMARK   79  A    between atoms: _192  and  _193
REMARK   80  A    between atoms: _196  and  _198
REMARK   81  A    between atoms: _198  and  _199
REMARK   82  A    between atoms: _198  and  _201
REMARK   83  A    between atoms: _201  and  _202
REMARK   84  A    between atoms: _207  and  _209
REMARK   85  A    between atoms: _209  and  _210
REMARK   86  A    between atoms: _209  and  _212
REMARK   87  A    between atoms: _215  and  _217
REMARK   88  A    between atoms: _217  and  _218
REMARK   89  A    between atoms: _217  and  _220
REMARK   90  A    between atoms: _220  and  _221
REMARK   91  A    between atoms: _224  and  _226
REMARK   92  A    between atoms: _226  and  _227
REMARK   93  A    between atoms: _226  and  _229
REMARK   94  A    between atoms: _229  and  _230
REMARK   95  A    between atoms: _233  and  _235
REMARK   96  A    between atoms: _235  and  _236
REMARK   97  A    between atoms: _235  and  _238
REMARK   98  A    between atoms: _238  and  _239
REMARK   99  A    between atoms: _245  and  _247
REMARK  100  A    between atoms: _247  and  _248
REMARK  101  A    between atoms: _247  and  _250
REMARK  102  A    between atoms: _250  and  _251
REMARK  103  A    between atoms: _256  and  _258
REMARK  104  A    between atoms: _258  and  _259
REMARK  105  A    between atoms: _258  and  _261
REMARK  106  A    between atoms: _261  and  _262
REMARK  107  A    between atoms: _272  and  _274
REMARK  108  A    between atoms: _274  and  _275
REMARK  109  A    between atoms: _274  and  _277
REMARK  110  A    between atoms: _277  and  _278
REMARK  111  A    between atoms: _283  and  _284
REMARK  112  A    between atoms: _286  and  _288
REMARK  113  A    between atoms: _288  and  _289
REMARK  114  A    between atoms: _288  and  _291
REMARK  115  A    between atoms: _291  and  _292
REMARK  116  A    between atoms: _297  and  _299
REMARK  117  A    between atoms: _299  and  _300
REMARK  118  A    between atoms: _299  and  _302
REMARK  119  A    between atoms: _302  and  _303
REMARK  120  A    between atoms: _308  and  _310
REMARK  121  A    between atoms: _310  and  _311
REMARK  122  A    between atoms: _310  and  _313
REMARK  123  A    between atoms: _313  and  _314
REMARK  124  A    between atoms: _314  and  _315
REMARK  125  A    between atoms: _320  and  _322
REMARK  126  A    between atoms: _322  and  _323
REMARK  127  A    between atoms: _322  and  _325
REMARK  128  A    between atoms: _325  and  _326
REMARK  129  A    between atoms: _331  and  _332
REMARK  130  A    between atoms: _334  and  _336
REMARK  131  A    between atoms: _336  and  _337
REMARK  132  A    between atoms: _336  and  _339
REMARK  133  A    between atoms: _339  and  _340
REMARK  134  A    between atoms: _343  and  _345
REMARK  135  A    between atoms: _345  and  _346
REMARK  136  A    between atoms: _349  and  _351
REMARK  137  A    between atoms: _351  and  _352
REMARK  138  A    between atoms: _351  and  _354
REMARK  139  A    between atoms: _354  and  _355
REMARK  140  A    between atoms: _357  and  _359
REMARK  141  A    between atoms: _359  and  _360
REMARK  142  A    between atoms: _359  and  _362
REMARK  143  A    between atoms: _362  and  _363
REMARK  144  A    between atoms: _363  and  _364
REMARK  145  A    between atoms: _366  and  _368
REMARK  146  A    between atoms: _368  and  _369
REMARK  147  A    between atoms: _368  and  _371
REMARK  148  A    between atoms: _371  and  _372
REMARK  149  A    between atoms: _374  and  _376
REMARK  150  A    between atoms: _376  and  _377
REMARK  151  A    between atoms: _376  and  _379
REMARK  152  A    between atoms: _379  and  _380
REMARK  153  A    between atoms: _385  and  _386
REMARK  154  A    between atoms: _388  and  _390
REMARK  155  A    between atoms: _390  and  _391
REMARK  156  A    between atoms: _390  and  _393
REMARK  157  A    between atoms: _393  and  _394
REMARK  158  A    between atoms: _396  and  _398
REMARK  159  A    between atoms: _398  and  _399
REMARK  160  A    between atoms: _402  and  _404
REMARK  161  A    between atoms: _404  and  _405
REMARK  162  A    between atoms: _404  and  _407
REMARK  163  A    between atoms: _407  and  _408
REMARK  164  A    between atoms: _418  and  _420
REMARK  165  A    between atoms: _420  and  _421
REMARK  166  A    between atoms: _420  and  _423
REMARK  167  A    between atoms: _426  and  _428
REMARK  168  A    between atoms: _428  and  _429
REMARK  169  A    between atoms: _428  and  _431
REMARK  170  A    between atoms: _431  and  _432
REMARK  171  A    between atoms: _435  and  _437
REMARK  172  A    between atoms: _437  and  _438
REMARK  173  A    between atoms: _437  and  _440
REMARK  174  A    between atoms: _440  and  _441
REMARK  175  A    between atoms: _446  and  _447
REMARK  176  A    between atoms: _449  and  _451
REMARK  177  A    between atoms: _451  and  _452
REMARK  178  A    between atoms: _451  and  _454
REMARK  179  A    between atoms: _457  and  _459
REMARK  180  A    between atoms: _459  and  _460
REMARK  181  A    between atoms: _459  and  _462
REMARK  182  A    between atoms: _462  and  _463
REMARK  183  A    between atoms: _469  and  _471
REMARK  184  A    between atoms: _471  and  _472
REMARK  185  A    between atoms: _471  and  _474
REMARK  186  A    between atoms: _474  and  _475
REMARK  187  A    between atoms: _475  and  _476
REMARK  188  A    between atoms: _481  and  _483
REMARK  189  A    between atoms: _483  and  _484
REMARK  190  A    between atoms: _483  and  _486
REMARK  191  A    between atoms: _486  and  _487
REMARK  192  A    between atoms: _489  and  _491
REMARK  193  A    between atoms: _491  and  _492
REMARK  194  A    between atoms: _491  and  _494
REMARK  195  A    between atoms: _494  and  _495
REMARK  196  A    between atoms: _500  and  _502
REMARK  197  A    between atoms: _502  and  _503
REMARK  198  A    between atoms: _502  and  _505
REMARK  199  A    between atoms: _505  and  _506
REMARK  200  A    between atoms: _516  and  _518
REMARK  201  A    between atoms: _518  and  _519
REMARK  202  A    between atoms: _518  and  _521
REMARK  203  A    between atoms: _521  and  _522
REMARK  204  A    between atoms: _525  and  _527
REMARK  205  A    between atoms: _527  and  _528
REMARK  206  A    between atoms: _527  and  _530
REMARK  207  A    between atoms: _530  and  _531
REMARK  208  A    between atoms: _536  and  _537
REMARK  209  A    between atoms: _539  and  _541
REMARK  210  A    between atoms: _541  and  _542
REMARK  211  A    between atoms: _541  and  _544
REMARK  212  A    between atoms: _544  and  _545
REMARK  213  A    between atoms: _548  and  _550
REMARK  214  A    between atoms: _550  and  _551
REMARK  215  A    between atoms: _550  and  _553
REMARK  216  A    between atoms: _553  and  _554
REMARK  217  A    between atoms: _554  and  _555
REMARK  218  A    between atoms: _558  and  _560
REMARK  219  A    between atoms: _560  and  _561
REMARK  220  A    between atoms: _560  and  _563
REMARK  221  A    between atoms: _563  and  _564
REMARK  222  A    between atoms: _569  and  _571
REMARK  223  A    between atoms: _571  and  _572
REMARK  224  A    between atoms: _574  and  _576
REMARK  225  A    between atoms: _576  and  _577
REMARK  226  A    between atoms: _576  and  _579
REMARK  227  A    between atoms: _579  and  _580
REMARK  228  A    between atoms: _580  and  _581
REMARK  229  A    between atoms: _583  and  _585
REMARK  230  A    between atoms: _585  and  _586
REMARK  231  A    between atoms: _585  and  _588
REMARK  232  A    between atoms: _588  and  _589
REMARK  233  A    between atoms: _592  and  _594
REMARK  234  A    between atoms: _594  and  _595
REMARK  235  A    between atoms: _594  and  _597
REMARK  236  A    between atoms: _597  and  _598
REMARK  237  A    between atoms: _608  and  _610
REMARK  238  A    between atoms: _610  and  _611
REMARK  239  A    between atoms: _610  and  _613
REMARK  240  A    between atoms: _613  and  _614
REMARK  241  A    between atoms: _616  and  _618
REMARK  242  A    between atoms: _618  and  _619
REMARK  243  A    between atoms: _618  and  _621
REMARK  244  A    between atoms: _621  and  _622
REMARK  245  A    between atoms: _627  and  _629
REMARK  246  A    between atoms: _629  and  _630
REMARK  247  A    between atoms: _629  and  _632
REMARK  248  A    between atoms: _632  and  _633
REMARK  249  A    between atoms: _639  and  _641
REMARK  250  A    between atoms: _641  and  _642
REMARK  251  A    between atoms: _641  and  _644
REMARK  252  A    between atoms: _644  and  _645
REMARK  253  A    between atoms: _645  and  _646
REMARK  254  A    between atoms: _649  and  _651
REMARK  255  A    between atoms: _651  and  _652
REMARK  256  A    between atoms: _651  and  _654
REMARK  257  A    between atoms: _654  and  _655
REMARK  258  A    between atoms: _665  and  _667
REMARK  259  A    between atoms: _667  and  _668
REMARK  260  A    between atoms: _667  and  _670
REMARK  261  A    between atoms: _670  and  _671
REMARK  262  A    between atoms: _674  and  _676
REMARK  263  A    between atoms: _676  and  _677
REMARK  264  A    between atoms: _676  and  _679
REMARK  265  A    between atoms: _679  and  _680
REMARK  266  A    between atoms: _682  and  _684
REMARK  267  A    between atoms: _684  and  _685
REMARK  268  A    between atoms: _684  and  _687
REMARK  269  A    between atoms: _687  and  _688
REMARK  270  A    between atoms: _690  and  _692
REMARK  271  A    between atoms: _692  and  _693
REMARK  272  A    between atoms: _692  and  _695
REMARK  273  A    between atoms: _695  and  _696
REMARK                            x       y       z     vdW  Elec       q    Type
REMARK                         _______ _______ _______ _____ _____    ______ ____
ROOT
ATOM      1  CA  TRP A   3      -1.807   5.098  44.844  0.00  0.00    +0.153 C 
ENDROOT
BRANCH   1   4
ATOM      2  C   ASN A   2      -4.026   6.083  44.491  0.00  0.00    +0.241 C 
ATOM      3  O   ASN A   2      -3.947   6.790  45.510  0.00  0.00    -0.273 OA
ATOM      4  N   TRP A   3      -3.067   5.255  44.086  0.00  0.00    -0.297 N 
ATOM      5  H   TRP A   3      -3.207   4.704  43.215  0.00  0.00    +0.150 HD
BRANCH   2   6
ATOM      6  CA  ASN A   2      -5.266   6.154  43.602  0.00  0.00    +0.158 C 
BRANCH   6   8
ATOM      7  C   SER A   1      -4.169   6.692  41.478  0.00  0.00    +0.241 C 
ATOM      8  N   ASN A   2      -5.000   5.909  42.167  0.00  0.00    -0.297 N 
ATOM      9  H   ASN A   2      -5.469   5.114  41.688  0.00  0.00    +0.150 HD
ATOM     10  O   SER A   1      -3.506   7.582  42.005  0.00  0.00    -0.274 OA
BRANCH   7  11
ATOM     11  CA  SER A   1      -4.077   6.451  39.969  0.00  0.00    +0.174 C 
BRANCH  11  12
ATOM     12  N   SER A   1      -4.271   7.725  39.276  0.00  0.00    -0.236 NA
ATOM     13  H   SER A   1      -3.456   8.198  38.835  0.00  0.00    +0.142 HD
ENDBRANCH  11  12
BRANCH  11  14
ATOM     14  CB  SER A   1      -2.731   5.827  39.610  0.00  0.00    +0.163 C 
BRANCH  14  15
ATOM     15  OG  SER A   1      -2.700   5.491  38.238  0.00  0.00    -0.380 OA
ATOM     16  H   SER A   1      -2.834   6.309  37.696  0.00  0.00    +0.211 HD
ENDBRANCH  14  15
ENDBRANCH  11  14
ENDBRANCH   7  11
ENDBRANCH   6   8
BRANCH   6  17
ATOM     17  CB  ASN A   2      -6.306   5.160  44.131  0.00  0.00    +0.114 C 
BRANCH  17  18
ATOM     18  CG  ASN A   2      -7.665   5.382  43.518  0.00  0.00    +0.222 C 
ATOM     19  ND2 ASN A   2      -8.557   4.398  43.666  0.00  0.00    -0.329 N 
ATOM     20 HD21 ASN A   2      -8.307   3.547  44.209  0.00  0.00    +0.145 HD
ATOM     21 HD22 ASN A   2      -9.501   4.483  43.238  0.00  0.00    +0.145 HD
ATOM     22  OD1 ASN A   2      -7.910   6.396  42.892  0.00  0.00    -0.275 OA
ENDBRANCH  17  18
ENDBRANCH   6  17
ENDBRANCH   2   6
ENDBRANCH   1   4
BRANCH   1  23
ATOM     23  C   TRP A   3      -0.847   6.251  44.631  0.00  0.00    +0.241 C 
ATOM     24  O   TRP A   3       0.097   6.394  45.401  0.00  0.00    -0.273 OA
ATOM     25  N   LEU A   4      -1.080   7.073  43.606  0.00  0.00    -0.297 N 
ATOM     26  H   LEU A   4      -1.981   7.016  43.090  0.00  0.00    +0.150 HD
BRANCH  25  27
ATOM     27  CA  LEU A   4      -0.071   8.053  43.207  0.00  0.00    +0.149 C 
BRANCH  27  28
ATOM     28  C   LEU A   4      -0.332   9.429  43.845  0.00  0.00    +0.241 C 
ATOM     29  N   TYR A   5       0.262   9.652  45.018  0.00  0.00    -0.298 N 
ATOM     30  H   TYR A   5       0.783   8.878  45.478  0.00  0.00    +0.150 HD
ATOM     31  O   LEU A   4      -1.098  10.253  43.297  0.00  0.00    -0.273 OA
BRANCH  29  32
ATOM     32  CA  TYR A   5       0.198  10.966  45.677  0.00  0.00    +0.141 C 
BRANCH  32  33
ATOM     33  C   TYR A   5       1.343  11.818  45.159  0.00  0.00    +0.227 C 
ATOM     34  O   TYR A   5       2.504  11.353  45.077  0.00  0.00    -0.286 OA
ENDBRANCH  32  33
BRANCH  32  35
ATOM     35  CB  TYR A   5       0.249  10.834  47.227  0.00  0.00    +0.054 C 
BRANCH  35  36
ATOM     36  CG  TYR A   5      -0.959  10.129  47.784  0.00  0.00    -0.020 A 
ATOM     37  CD2 TYR A   5      -1.989  10.840  48.397  0.00  0.00    -0.001 A 
ATOM     38  CE2 TYR A   5      -3.108  10.191  48.895  0.00  0.00    +0.036 A 
ATOM     39  CZ  TYR A   5      -3.186   8.825  48.780  0.00  0.00    +0.134 A 
ATOM     40  CE1 TYR A   5      -2.174   8.091  48.164  0.00  0.00    +0.036 A 
ATOM     41  CD1 TYR A   5      -1.083   8.745  47.677  0.00  0.00    -0.001 A 
BRANCH  39  42
ATOM     42  OH  TYR A   5      -4.284   8.164  49.265  0.00  0.00    -0.506 OA
ATOM     43  HH  TYR A   5      -4.181   7.193  49.103  0.00  0.00    +0.292 HD
ENDBRANCH  39  42
ENDBRANCH  35  36
ENDBRANCH  32  35
ENDBRANCH  29  32
ENDBRANCH  27  28
BRANCH  27  44
ATOM     44  CB  LEU A   4       0.034   8.169  41.660  0.00  0.00    +0.029 C 
BRANCH  44  45
ATOM     45  CG  LEU A   4       1.386   8.697  41.112  0.00  0.00    +0.002 C 
ATOM     46  CD2 LEU A   4       1.696  10.124  41.551  0.00  0.00    +0.000 C 
ATOM     47  CD1 LEU A   4       1.350   8.626  39.594  0.00  0.00    +0.000 C 
ENDBRANCH  44  45
ENDBRANCH  27  44
ENDBRANCH  25  27
ENDBRANCH   1  23
BRANCH   1  48
ATOM     48  CB  TRP A   3      -1.110   3.787  44.477  0.00  0.00    +0.057 C 
BRANCH  48  49
ATOM     49  CG  TRP A   3      -0.816   3.651  43.005  0.00  0.00    -0.002 A 
ATOM     50  CD2 TRP A   3       0.326   4.158  42.308  0.00  0.00    +0.013 A 
ATOM     51  CE3 TRP A   3       1.465   4.895  42.699  0.00  0.00    +0.001 A 
ATOM     52  CZ3 TRP A   3       2.407   5.243  41.713  0.00  0.00    +0.000 A 
ATOM     53  CH2 TRP A   3       2.247   4.852  40.388  0.00  0.00    +0.001 A 
ATOM     54  CZ2 TRP A   3       1.150   4.130  39.968  0.00  0.00    +0.017 A 
ATOM     55  CE2 TRP A   3       0.192   3.782  40.943  0.00  0.00    +0.056 A 
ATOM     56  NE1 TRP A   3      -0.965   3.056  40.827  0.00  0.00    -0.352 N 
ATOM     57  HE1 TRP A   3      -1.330   2.632  39.951  0.00  0.00    +0.166 HD
ATOM     58  CD1 TRP A   3      -1.568   2.982  42.078  0.00  0.00    +0.068 A 
ENDBRANCH  48  49
ENDBRANCH   1  48
TORSDOF 21
REMARK  Name = ../refined-set-2016/3f5j/3f5j_pocket.pdb
REMARK  273 active torsions:
REMARK  status: ('A' for Active; 'I' for Inactive)
REMARK    1  A    between atoms: _1  and  _3
REMARK    2  A    between atoms: _3  and  _4
REMARK    3  A    between atoms: _3  and  _6
REMARK    4  A    between atoms: _9  and  _11
REMARK    5  A    between atoms: _11  and  _12
REMARK    6  A    between atoms: _11  and  _14
REMARK    7  A    between atoms: _14  and  _15
REMARK    8  A    between atoms: _18  and  _20
REMARK    9  A    between atoms: _20  and  _21
REMARK   10  A    between atoms: _20  and  _23
REMARK   11  A    between atoms: _23  and  _24
REMARK   12  A    between atoms: _26  and  _28
REMARK   13  A    between atoms: _28  and  _29
REMARK   14  A    between atoms: _28  and  _31
REMARK   15  A    between atoms: _31  and  _32
REMARK   16  A    between atoms: _32  and  _33
REMARK   17  A    between atoms: _38  and  _40
REMARK   18  A    between atoms: _40  and  _41
REMARK   19  A    between atoms: _40  and  _43
REMARK   20  A    between atoms: _43  and  _44
REMARK   21  A    between atoms: _44  and  _45
REMARK   22  A    between atoms: _45  and  _46
REMARK   23  A    between atoms: _55  and  _57
REMARK   24  A    between atoms: _57  and  _58
REMARK   25  A    between atoms: _57  and  _60
REMARK   26  A    between atoms: _60  and  _61
REMARK   27  A    between atoms: _63  and  _65
REMARK   28  A    between atoms: _65  and  _66
REMARK   29  A    between atoms: _65  and  _68
REMARK   30  A    between atoms: _68  and  _69
REMARK   31  A    between atoms: _74  and  _76
REMARK   32  A    between atoms: _76  and  _77
REMARK   33  A    between atoms: _76  and  _79
REMARK   34  A    between atoms: _79  and  _80
REMARK   35  A    between atoms: _85  and  _87
REMARK   36  A    between atoms: _87  and  _88
REMARK   37  A    between atoms: _87  and  _90
REMARK   38  A    between atoms: _90  and  _91
REMARK   39  A    between atoms: _96  and  _97
REMARK   40  A    between atoms: _99  and  _101
REMARK   41  A    between atoms: _101  and  _102
REMARK   42  A    between atoms: _101  and  _104
REMARK   43  A    between atoms: _104  and  _105
REMARK   44  A    between atoms: _110  and  _112
REMARK   45  A    between atoms: _112  and  _113
REMARK   46  A    between atoms: _112  and  _115
REMARK   47  A    between atoms: _115  and  _116
REMARK   48  A    between atoms: _116  and  _117
REMARK   49  A    between atoms: _122  and  _124
REMARK   50  A    between atoms: _124  and  _125
REMARK   51  A    between atoms: _124  and  _127
REMARK   52  A    between atoms: _127  and  _128
REMARK   53  A    between atoms: _128  and  _129
REMARK   54  A    between atoms: _129  and  _130
REMARK   55  A    between atoms: _139  and  _141
REMARK   56  A    between atoms: _141  and  _142
REMARK   57  A    between atoms: _141  and  _144
REMARK   58  A    between atoms: _144  and  _145
REMARK   59  A    between atoms: _148  and  _150
REMARK   60  A    between atoms: _150  and  _151
REMARK   61  A    between atoms: _150  and  _153
REMARK   62  A    between atoms: _153  and  _154
REMARK   63  A    between atoms: _157  and  _159
REMARK   64  A    between atoms: _159  and  _160
REMARK   65  A    between atoms: _159  and  _162
REMARK   66  A    between atoms: _162  and  _163
REMARK   67  A    between atoms: _166  and  _168
REMARK   68  A    between atoms: _168  and  _169
REMARK   69  A    between atoms: _168  and  _171
REMARK   70  A    between atoms: _171  and  _172
REMARK   71  A    between atoms: _175  and  _177
REMARK   72  A    between atoms: _177  and  _178
REMARK   73  A    between atoms: _177  and  _180
REMARK   74  A    between atoms: _180  and  _181
REMARK   75  A    between atoms: _181  and  _182
REMARK   76  A    between atoms: _187  and  _189
REMARK   77  A    between atoms: _189  and  _190
REMARK   78  A    between atoms: _189  and  _192
REMARK   79  A    between atoms: _192  and  _193
REMARK   80  A    between atoms: _196  and  _198
REMARK   81  A    between atoms: _198  and  _199
REMARK   82  A    between atoms: _198  and  _201
REMARK   83  A    between atoms: _201  and  _202
REMARK   84  A    between atoms: _207  and  _209
REMARK   85  A    between atoms: _209  and  _210
REMARK   86  A    between atoms: _209  and  _212
REMARK   87  A    between atoms: _215  and  _217
REMARK   88  A    between atoms: _217  and  _218
REMARK   89  A    between atoms: _217  and  _220
REMARK   90  A    between atoms: _220  and  _221
REMARK   91  A    between atoms: _224  and  _226
REMARK   92  A    between atoms: _226  and  _227
REMARK   93  A    between atoms: _226  and  _229
REMARK   94  A    between atoms: _229  and  _230
REMARK   95  A    between atoms: _233  and  _235
REMARK   96  A    between atoms: _235  and  _236
REMARK   97  A    between atoms: _235  and  _238
REMARK   98  A    between atoms: _238  and  _239
REMARK   99  A    between atoms: _245  and  _247
REMARK  100  A    between atoms: _247  and  _248
REMARK  101  A    between atoms: _247  and  _250
REMARK  102  A    between atoms: _250  and  _251
REMARK  103  A    between atoms: _256  and  _258
REMARK  104  A    between atoms: _258  and  _259
REMARK  105  A    between atoms: _258  and  _261
REMARK  106  A    between atoms: _261  and  _262
REMARK  107  A    between atoms: _272  and  _274
REMARK  108  A    between atoms: _274  and  _275
REMARK  109  A    between atoms: _274  and  _277
REMARK  110  A    between atoms: _277  and  _278
REMARK  111  A    between atoms: _283  and  _284
REMARK  112  A    between atoms: _286  and  _288
REMARK  113  A    between atoms: _288  and  _289
REMARK  114  A    between atoms: _288  and  _291
REMARK  115  A    between atoms: _291  and  _292
REMARK  116  A    between atoms: _297  and  _299
REMARK  117  A    between atoms: _299  and  _300
REMARK  118  A    between atoms: _299  and  _302
REMARK  119  A    between atoms: _302  and  _303
REMARK  120  A    between atoms: _308  and  _310
REMARK  121  A    between atoms: _310  and  _311
REMARK  122  A    between atoms: _310  and  _313
REMARK  123  A    between atoms: _313  and  _314
REMARK  124  A    between atoms: _314  and  _315
REMARK  125  A    between atoms: _320  and  _322
REMARK  126  A    between atoms: _322  and  _323
REMARK  127  A    between atoms: _322  and  _325
REMARK  128  A    between atoms: _325  and  _326
REMARK  129  A    between atoms: _331  and  _332
REMARK  130  A    between atoms: _334  and  _336
REMARK  131  A    between atoms: _336  and  _337
REMARK  132  A    between atoms: _336  and  _339
REMARK  133  A    between atoms: _339  and  _340
REMARK  134  A    between atoms: _343  and  _345
REMARK  135  A    between atoms: _345  and  _346
REMARK  136  A    between atoms: _349  and  _351
REMARK  137  A    between atoms: _351  and  _352
REMARK  138  A    between atoms: _351  and  _354
REMARK  139  A    between atoms: _354  and  _355
REMARK  140  A    between atoms: _357  and  _359
REMARK  141  A    between atoms: _359  and  _360
REMARK  142  A    between atoms: _359  and  _362
REMARK  143  A    between atoms: _362  and  _363
REMARK  144  A    between atoms: _363  and  _364
REMARK  145  A    between atoms: _366  and  _368
REMARK  146  A    between atoms: _368  and  _369
REMARK  147  A    between atoms: _368  and  _371
REMARK  148  A    between atoms: _371  and  _372
REMARK  149  A    between atoms: _374  and  _376
REMARK  150  A    between atoms: _376  and  _377
REMARK  151  A    between atoms: _376  and  _379
REMARK  152  A    between atoms: _379  and  _380
REMARK  153  A    between atoms: _385  and  _386
REMARK  154  A    between atoms: _388  and  _390
REMARK  155  A    between atoms: _390  and  _391
REMARK  156  A    between atoms: _390  and  _393
REMARK  157  A    between atoms: _393  and  _394
REMARK  158  A    between atoms: _396  and  _398
REMARK  159  A    between atoms: _398  and  _399
REMARK  160  A    between atoms: _402  and  _404
REMARK  161  A    between atoms: _404  and  _405
REMARK  162  A    between atoms: _404  and  _407
REMARK  163  A    between atoms: _407  and  _408
REMARK  164  A    between atoms: _418  and  _420
REMARK  165  A    between atoms: _420  and  _421
REMARK  166  A    between atoms: _420  and  _423
REMARK  167  A    between atoms: _426  and  _428
REMARK  168  A    between atoms: _428  and  _429
REMARK  169  A    between atoms: _428  and  _431
REMARK  170  A    between atoms: _431  and  _432
REMARK  171  A    between atoms: _435  and  _437
REMARK  172  A    between atoms: _437  and  _438
REMARK  173  A    between atoms: _437  and  _440
REMARK  174  A    between atoms: _440  and  _441
REMARK  175  A    between atoms: _446  and  _447
REMARK  176  A    between atoms: _449  and  _451
REMARK  177  A    between atoms: _451  and  _452
REMARK  178  A    between atoms: _451  and  _454
REMARK  179  A    between atoms: _457  and  _459
REMARK  180  A    between atoms: _459  and  _460
REMARK  181  A    between atoms: _459  and  _462
REMARK  182  A    between atoms: _462  and  _463
REMARK  183  A    between atoms: _469  and  _471
REMARK  184  A    between atoms: _471  and  _472
REMARK  185  A    between atoms: _471  and  _474
REMARK  186  A    between atoms: _474  and  _475
REMARK  187  A    between atoms: _475  and  _476
REMARK  188  A    between atoms: _481  and  _483
REMARK  189  A    between atoms: _483  and  _484
REMARK  190  A    between atoms: _483  and  _486
REMARK  191  A    between atoms: _486  and  _487
REMARK  192  A    between atoms: _489  and  _491
REMARK  193  A    between atoms: _491  and  _492
REMARK  194  A    between atoms: _491  and  _494
REMARK  195  A    between atoms: _494  and  _495
REMARK  196  A    between atoms: _500  and  _502
REMARK  197  A    between atoms: _502  and  _503
REMARK  198  A    between atoms: _502  and  _505
REMARK  199  A    between atoms: _505  and  _506
REMARK  200  A    between atoms: _516  and  _518
REMARK  201  A    between atoms: _518  and  _519
REMARK  202  A    between atoms: _518  and  _521
REMARK  203  A    between atoms: _521  and  _522
REMARK  204  A    between atoms: _525  and  _527
REMARK  205  A    between atoms: _527  and  _528
REMARK  206  A    between atoms: _527  and  _530
REMARK  207  A    between atoms: _530  and  _531
REMARK  208  A    between atoms: _536  and  _537
REMARK  209  A    between atoms: _539  and  _541
REMARK  210  A    between atoms: _541  and  _542
REMARK  211  A    between atoms: _541  and  _544
REMARK  212  A    between atoms: _544  and  _545
REMARK  213  A    between atoms: _548  and  _550
REMARK  214  A    between atoms: _550  and  _551
REMARK  215  A    between atoms: _550  and  _553
REMARK  216  A    between atoms: _553  and  _554
REMARK  217  A    between atoms: _554  and  _555
REMARK  218  A    between atoms: _558  and  _560
REMARK  219  A    between atoms: _560  and  _561
REMARK  220  A    between atoms: _560  and  _563
REMARK  221  A    between atoms: _563  and  _564
REMARK  222  A    between atoms: _569  and  _571
REMARK  223  A    between atoms: _571  and  _572
REMARK  224  A    between atoms: _574  and  _576
REMARK  225  A    between atoms: _576  and  _577
REMARK  226  A    between atoms: _576  and  _579
REMARK  227  A    between atoms: _579  and  _580
REMARK  228  A    between atoms: _580  and  _581
REMARK  229  A    between atoms: _583  and  _585
REMARK  230  A    between atoms: _585  and  _586
REMARK  231  A    between atoms: _585  and  _588
REMARK  232  A    between atoms: _588  and  _589
REMARK  233  A    between atoms: _592  and  _594
REMARK  234  A    between atoms: _594  and  _595
REMARK  235  A    between atoms: _594  and  _597
REMARK  236  A    between atoms: _597  and  _598
REMARK  237  A    between atoms: _608  and  _610
REMARK  238  A    between atoms: _610  and  _611
REMARK  239  A    between atoms: _610  and  _613
REMARK  240  A    between atoms: _613  and  _614
REMARK  241  A    between atoms: _616  and  _618
REMARK  242  A    between atoms: _618  and  _619
REMARK  243  A    between atoms: _618  and  _621
REMARK  244  A    between atoms: _621  and  _622
REMARK  245  A    between atoms: _627  and  _629
REMARK  246  A    between atoms: _629  and  _630
REMARK  247  A    between atoms: _629  and  _632
REMARK  248  A    between atoms: _632  and  _633
REMARK  249  A    between atoms: _639  and  _641
REMARK  250  A    between atoms: _641  and  _642
REMARK  251  A    between atoms: _641  and  _644
REMARK  252  A    between atoms: _644  and  _645
REMARK  253  A    between atoms: _645  and  _646
REMARK  254  A    between atoms: _649  and  _651
REMARK  255  A    between atoms: _651  and  _652
REMARK  256  A    between atoms: _651  and  _654
REMARK  257  A    between atoms: _654  and  _655
REMARK  258  A    between atoms: _665  and  _667
REMARK  259  A    between atoms: _667  and  _668
REMARK  260  A    between atoms: _667  and  _670
REMARK  261  A    between atoms: _670  and  _671
REMARK  262  A    between atoms: _674  and  _676
REMARK  263  A    between atoms: _676  and  _677
REMARK  264  A    between atoms: _676  and  _679
REMARK  265  A    between atoms: _679  and  _680
REMARK  266  A    between atoms: _682  and  _684
REMARK  267  A    between atoms: _684  and  _685
REMARK  268  A    between atoms: _684  and  _687
REMARK  269  A    between atoms: _687  and  _688
REMARK  270  A    between atoms: _690  and  _692
REMARK  271  A    between atoms: _692  and  _693
REMARK  272  A    between atoms: _692  and  _695
REMARK  273  A    between atoms: _695  and  _696
REMARK                            x       y       z     vdW  Elec       q    Type
REMARK                         _______ _______ _______ _____ _____    ______ ____
ROOT
ATOM      1  CA  ASN A   3       8.916   9.276  37.157  0.00  0.00    +0.158 C 
ENDROOT
BRANCH   1   2
ATOM      2  C   ASN A   3       7.839   9.951  36.301  0.00  0.00    +0.241 C 
ATOM      3  N   GLY A   4       6.616  10.093  36.826  0.00  0.00    -0.295 N 
ATOM      4  H   GLY A   4       6.431   9.762  37.794  0.00  0.00    +0.150 HD
ATOM      5  O   ASN A   3       8.105  10.269  35.139  0.00  0.00    -0.273 OA
BRANCH   3   6
ATOM      6  CA  GLY A   4       5.534  10.709  36.054  0.00  0.00    +0.176 C 
BRANCH   6   7
ATOM      7  C   GLY A   4       4.208  10.536  36.757  0.00  0.00    +0.243 C 
ATOM      8  O   GLY A   4       4.148   9.966  37.873  0.00  0.00    -0.273 OA
ATOM      9  N   MET A   5       3.135  11.006  36.118  0.00  0.00    -0.297 N 
ATOM     10  H   MET A   5       3.248  11.400  35.162  0.00  0.00    +0.150 HD
BRANCH   9  11
ATOM     11  CA  MET A   5       1.798  10.982  36.729  0.00  0.00    +0.149 C 
BRANCH  11  12
ATOM     12  C   MET A   5       0.724  10.836  35.652  0.00  0.00    +0.241 C 
ATOM     13  N   ASP A   6      -0.477  10.423  36.056  0.00  0.00    -0.298 N 
ATOM     14  H   ASP A   6      -0.674  10.311  37.071  0.00  0.00    +0.150 HD
ATOM     15  O   MET A   5       1.002  11.046  34.482  0.00  0.00    -0.273 OA
BRANCH  13  16
ATOM     16  CA  ASP A   6      -1.522  10.126  35.070  0.00  0.00    +0.148 C 
BRANCH  16  17
ATOM     17  C   ASP A   6      -2.762  11.023  35.101  0.00  0.00    +0.227 C 
ATOM     18  O   ASP A   6      -3.132  11.553  36.158  0.00  0.00    -0.286 OA
ENDBRANCH  16  17
BRANCH  16  19
ATOM     19  CB  ASP A   6      -1.912   8.636  35.054  0.00  0.00    +0.142 C 
BRANCH  19  20
ATOM     20  CG  ASP A   6      -2.411   8.116  36.386  0.00  0.00    +0.367 C 
ATOM     21  OD2 ASP A   6      -2.146   8.734  37.442  0.00  0.00    -0.246 OA
ATOM     22  OD1 ASP A   6      -3.098   7.062  36.357  0.00  0.00    -0.246 OA
ENDBRANCH  19  20
ENDBRANCH  16  19
ENDBRANCH  13  16
ENDBRANCH  11  12
BRANCH  11  23
ATOM     23  CB  MET A   5       1.522  12.260  37.551  0.00  0.00    +0.041 C 
BRANCH  23  24
ATOM     24  CG  MET A   5       1.729  13.575  36.737  0.00  0.00    +0.060 C 
BRANCH  24  25
ATOM     25  SD  MET A   5       0.630  14.879  37.380  0.00  0.00    -0.139 S 
ATOM     26  CE  MET A   5      -0.916  14.410  36.609  0.00  0.00    +0.069 C 
ENDBRANCH  24  25
ENDBRANCH  23  24
ENDBRANCH  11  23
ENDBRANCH   9  11
ENDBRANCH   6   7
ENDBRANCH   3   6
ENDBRANCH   1   2
BRANCH   1  29
ATOM     27  C   GLU A   2      10.310   7.312  36.720  0.00  0.00    +0.241 C 
ATOM     28  O   GLU A   2      10.626   7.170  37.923  0.00  0.00    -0.273 OA
ATOM     29  N   ASN A   3       9.590   8.325  36.250  0.00  0.00    -0.297 N 
ATOM     30  H   ASN A   3       9.499   8.451  35.222  0.00  0.00    +0.150 HD
BRANCH  27  31
ATOM     31  CA  GLU A   2      10.690   6.271  35.701  0.00  0.00    +0.149 C 
BRANCH  31  33
ATOM     32  C   THR A   1      12.890   5.357  35.045  0.00  0.00    +0.241 C 
ATOM     33  N   GLU A   2      12.093   5.885  35.981  0.00  0.00    -0.297 N 
ATOM     34  H   GLU A   2      12.471   6.030  36.939  0.00  0.00    +0.150 HD
ATOM     35  O   THR A   1      12.473   5.002  33.943  0.00  0.00    -0.274 OA
BRANCH  32  36
ATOM     36  CA  THR A   1      14.369   5.130  35.401  0.00  0.00    +0.172 C 
BRANCH  36  37
ATOM     37  N   THR A   1      14.850   5.851  36.582  0.00  0.00    -0.236 NA
ATOM     38  H   THR A   1      14.806   5.375  37.506  0.00  0.00    +0.142 HD
ENDBRANCH  36  37
BRANCH  36  39
ATOM     39  CB  THR A   1      14.736   3.613  35.474  0.00  0.00    +0.135 C 
ATOM     40  CG2 THR A   1      16.279   3.411  35.113  0.00  0.00    +0.034 C 
BRANCH  39  41
ATOM     41  OG1 THR A   1      14.472   3.101  36.788  0.00  0.00    -0.383 OA
ATOM     42  HG1 THR A   1      13.511   3.213  36.997  0.00  0.00    +0.210 HD
ENDBRANCH  39  41
ENDBRANCH  36  39
ENDBRANCH  32  36
ENDBRANCH  31  33
BRANCH  31  43
ATOM     43  CB  GLU A   2       9.710   5.086  35.889  0.00  0.00    +0.041 C 
BRANCH  43  44
ATOM     44  CG  GLU A   2       9.752   4.072  34.799  0.00  0.00    +0.116 C 
BRANCH  44  45
ATOM     45  CD  GLU A   2       8.776   2.912  35.005  0.00  0.00    +0.365 C 
ATOM     46  OE2 GLU A   2       7.704   3.046  35.684  0.00  0.00    -0.246 OA
ATOM     47  OE1 GLU A   2       9.118   1.843  34.473  0.00  0.00    -0.246 OA
ENDBRANCH  44  45
ENDBRANCH  43  44
ENDBRANCH  31  43
ENDBRANCH  27  31
ENDBRANCH   1  29
BRANCH   1  48
ATOM     48  CB  ASN A   3       9.964  10.277  37.703  0.00  0.00    +0.114 C 
BRANCH  48  49
ATOM     49  CG  ASN A   3       9.352  11.374  38.564  0.00  0.00    +0.222 C 
ATOM     50  ND2 ASN A   3       8.594  11.001  39.651  0.00  0.00    -0.329 N 
ATOM     51 HD21 ASN A   3       8.167  11.727  40.261  0.00  0.00    +0.145 HD
ATOM     52 HD22 ASN A   3       8.449   9.993  39.862  0.00  0.00    +0.145 HD
ATOM     53  OD1 ASN A   3       9.557  12.530  38.267  0.00  0.00    -0.275 OA
ENDBRANCH  48  49
ENDBRANCH   1  48
TORSDOF 24
REMARK  Name = ../refined-set-2016/3f5j/3f5j_pocket.pdb
REMARK  273 active torsions:
REMARK  status: ('A' for Active; 'I' for Inactive)
REMARK    1  A    between atoms: _1  and  _3
REMARK    2  A    between atoms: _3  and  _4
REMARK    3  A    between atoms: _3  and  _6
REMARK    4  A    between atoms: _9  and  _11
REMARK    5  A    between atoms: _11  and  _12
REMARK    6  A    between atoms: _11  and  _14
REMARK    7  A    between atoms: _14  and  _15
REMARK    8  A    between atoms: _18  and  _20
REMARK    9  A    between atoms: _20  and  _21
REMARK   10  A    between atoms: _20  and  _23
REMARK   11  A    between atoms: _23  and  _24
REMARK   12  A    between atoms: _26  and  _28
REMARK   13  A    between atoms: _28  and  _29
REMARK   14  A    between atoms: _28  and  _31
REMARK   15  A    between atoms: _31  and  _32
REMARK   16  A    between atoms: _32  and  _33
REMARK   17  A    between atoms: _38  and  _40
REMARK   18  A    between atoms: _40  and  _41
REMARK   19  A    between atoms: _40  and  _43
REMARK   20  A    between atoms: _43  and  _44
REMARK   21  A    between atoms: _44  and  _45
REMARK   22  A    between atoms: _45  and  _46
REMARK   23  A    between atoms: _55  and  _57
REMARK   24  A    between atoms: _57  and  _58
REMARK   25  A    between atoms: _57  and  _60
REMARK   26  A    between atoms: _60  and  _61
REMARK   27  A    between atoms: _63  and  _65
REMARK   28  A    between atoms: _65  and  _66
REMARK   29  A    between atoms: _65  and  _68
REMARK   30  A    between atoms: _68  and  _69
REMARK   31  A    between atoms: _74  and  _76
REMARK   32  A    between atoms: _76  and  _77
REMARK   33  A    between atoms: _76  and  _79
REMARK   34  A    between atoms: _79  and  _80
REMARK   35  A    between atoms: _85  and  _87
REMARK   36  A    between atoms: _87  and  _88
REMARK   37  A    between atoms: _87  and  _90
REMARK   38  A    between atoms: _90  and  _91
REMARK   39  A    between atoms: _96  and  _97
REMARK   40  A    between atoms: _99  and  _101
REMARK   41  A    between atoms: _101  and  _102
REMARK   42  A    between atoms: _101  and  _104
REMARK   43  A    between atoms: _104  and  _105
REMARK   44  A    between atoms: _110  and  _112
REMARK   45  A    between atoms: _112  and  _113
REMARK   46  A    between atoms: _112  and  _115
REMARK   47  A    between atoms: _115  and  _116
REMARK   48  A    between atoms: _116  and  _117
REMARK   49  A    between atoms: _122  and  _124
REMARK   50  A    between atoms: _124  and  _125
REMARK   51  A    between atoms: _124  and  _127
REMARK   52  A    between atoms: _127  and  _128
REMARK   53  A    between atoms: _128  and  _129
REMARK   54  A    between atoms: _129  and  _130
REMARK   55  A    between atoms: _139  and  _141
REMARK   56  A    between atoms: _141  and  _142
REMARK   57  A    between atoms: _141  and  _144
REMARK   58  A    between atoms: _144  and  _145
REMARK   59  A    between atoms: _148  and  _150
REMARK   60  A    between atoms: _150  and  _151
REMARK   61  A    between atoms: _150  and  _153
REMARK   62  A    between atoms: _153  and  _154
REMARK   63  A    between atoms: _157  and  _159
REMARK   64  A    between atoms: _159  and  _160
REMARK   65  A    between atoms: _159  and  _162
REMARK   66  A    between atoms: _162  and  _163
REMARK   67  A    between atoms: _166  and  _168
REMARK   68  A    between atoms: _168  and  _169
REMARK   69  A    between atoms: _168  and  _171
REMARK   70  A    between atoms: _171  and  _172
REMARK   71  A    between atoms: _175  and  _177
REMARK   72  A    between atoms: _177  and  _178
REMARK   73  A    between atoms: _177  and  _180
REMARK   74  A    between atoms: _180  and  _181
REMARK   75  A    between atoms: _181  and  _182
REMARK   76  A    between atoms: _187  and  _189
REMARK   77  A    between atoms: _189  and  _190
REMARK   78  A    between atoms: _189  and  _192
REMARK   79  A    between atoms: _192  and  _193
REMARK   80  A    between atoms: _196  and  _198
REMARK   81  A    between atoms: _198  and  _199
REMARK   82  A    between atoms: _198  and  _201
REMARK   83  A    between atoms: _201  and  _202
REMARK   84  A    between atoms: _207  and  _209
REMARK   85  A    between atoms: _209  and  _210
REMARK   86  A    between atoms: _209  and  _212
REMARK   87  A    between atoms: _215  and  _217
REMARK   88  A    between atoms: _217  and  _218
REMARK   89  A    between atoms: _217  and  _220
REMARK   90  A    between atoms: _220  and  _221
REMARK   91  A    between atoms: _224  and  _226
REMARK   92  A    between atoms: _226  and  _227
REMARK   93  A    between atoms: _226  and  _229
REMARK   94  A    between atoms: _229  and  _230
REMARK   95  A    between atoms: _233  and  _235
REMARK   96  A    between atoms: _235  and  _236
REMARK   97  A    between atoms: _235  and  _238
REMARK   98  A    between atoms: _238  and  _239
REMARK   99  A    between atoms: _245  and  _247
REMARK  100  A    between atoms: _247  and  _248
REMARK  101  A    between atoms: _247  and  _250
REMARK  102  A    between atoms: _250  and  _251
REMARK  103  A    between atoms: _256  and  _258
REMARK  104  A    between atoms: _258  and  _259
REMARK  105  A    between atoms: _258  and  _261
REMARK  106  A    between atoms: _261  and  _262
REMARK  107  A    between atoms: _272  and  _274
REMARK  108  A    between atoms: _274  and  _275
REMARK  109  A    between atoms: _274  and  _277
REMARK  110  A    between atoms: _277  and  _278
REMARK  111  A    between atoms: _283  and  _284
REMARK  112  A    between atoms: _286  and  _288
REMARK  113  A    between atoms: _288  and  _289
REMARK  114  A    between atoms: _288  and  _291
REMARK  115  A    between atoms: _291  and  _292
REMARK  116  A    between atoms: _297  and  _299
REMARK  117  A    between atoms: _299  and  _300
REMARK  118  A    between atoms: _299  and  _302
REMARK  119  A    between atoms: _302  and  _303
REMARK  120  A    between atoms: _308  and  _310
REMARK  121  A    between atoms: _310  and  _311
REMARK  122  A    between atoms: _310  and  _313
REMARK  123  A    between atoms: _313  and  _314
REMARK  124  A    between atoms: _314  and  _315
REMARK  125  A    between atoms: _320  and  _322
REMARK  126  A    between atoms: _322  and  _323
REMARK  127  A    between atoms: _322  and  _325
REMARK  128  A    between atoms: _325  and  _326
REMARK  129  A    between atoms: _331  and  _332
REMARK  130  A    between atoms: _334  and  _336
REMARK  131  A    between atoms: _336  and  _337
REMARK  132  A    between atoms: _336  and  _339
REMARK  133  A    between atoms: _339  and  _340
REMARK  134  A    between atoms: _343  and  _345
REMARK  135  A    between atoms: _345  and  _346
REMARK  136  A    between atoms: _349  and  _351
REMARK  137  A    between atoms: _351  and  _352
REMARK  138  A    between atoms: _351  and  _354
REMARK  139  A    between atoms: _354  and  _355
REMARK  140  A    between atoms: _357  and  _359
REMARK  141  A    between atoms: _359  and  _360
REMARK  142  A    between atoms: _359  and  _362
REMARK  143  A    between atoms: _362  and  _363
REMARK  144  A    between atoms: _363  and  _364
REMARK  145  A    between atoms: _366  and  _368
REMARK  146  A    between atoms: _368  and  _369
REMARK  147  A    between atoms: _368  and  _371
REMARK  148  A    between atoms: _371  and  _372
REMARK  149  A    between atoms: _374  and  _376
REMARK  150  A    between atoms: _376  and  _377
REMARK  151  A    between atoms: _376  and  _379
REMARK  152  A    between atoms: _379  and  _380
REMARK  153  A    between atoms: _385  and  _386
REMARK  154  A    between atoms: _388  and  _390
REMARK  155  A    between atoms: _390  and  _391
REMARK  156  A    between atoms: _390  and  _393
REMARK  157  A    between atoms: _393  and  _394
REMARK  158  A    between atoms: _396  and  _398
REMARK  159  A    between atoms: _398  and  _399
REMARK  160  A    between atoms: _402  and  _404
REMARK  161  A    between atoms: _404  and  _405
REMARK  162  A    between atoms: _404  and  _407
REMARK  163  A    between atoms: _407  and  _408
REMARK  164  A    between atoms: _418  and  _420
REMARK  165  A    between atoms: _420  and  _421
REMARK  166  A    between atoms: _420  and  _423
REMARK  167  A    between atoms: _426  and  _428
REMARK  168  A    between atoms: _428  and  _429
REMARK  169  A    between atoms: _428  and  _431
REMARK  170  A    between atoms: _431  and  _432
REMARK  171  A    between atoms: _435  and  _437
REMARK  172  A    between atoms: _437  and  _438
REMARK  173  A    between atoms: _437  and  _440
REMARK  174  A    between atoms: _440  and  _441
REMARK  175  A    between atoms: _446  and  _447
REMARK  176  A    between atoms: _449  and  _451
REMARK  177  A    between atoms: _451  and  _452
REMARK  178  A    between atoms: _451  and  _454
REMARK  179  A    between atoms: _457  and  _459
REMARK  180  A    between atoms: _459  and  _460
REMARK  181  A    between atoms: _459  and  _462
REMARK  182  A    between atoms: _462  and  _463
REMARK  183  A    between atoms: _469  and  _471
REMARK  184  A    between atoms: _471  and  _472
REMARK  185  A    between atoms: _471  and  _474
REMARK  186  A    between atoms: _474  and  _475
REMARK  187  A    between atoms: _475  and  _476
REMARK  188  A    between atoms: _481  and  _483
REMARK  189  A    between atoms: _483  and  _484
REMARK  190  A    between atoms: _483  and  _486
REMARK  191  A    between atoms: _486  and  _487
REMARK  192  A    between atoms: _489  and  _491
REMARK  193  A    between atoms: _491  and  _492
REMARK  194  A    between atoms: _491  and  _494
REMARK  195  A    between atoms: _494  and  _495
REMARK  196  A    between atoms: _500  and  _502
REMARK  197  A    between atoms: _502  and  _503
REMARK  198  A    between atoms: _502  and  _505
REMARK  199  A    between atoms: _505  and  _506
REMARK  200  A    between atoms: _516  and  _518
REMARK  201  A    between atoms: _518  and  _519
REMARK  202  A    between atoms: _518  and  _521
REMARK  203  A    between atoms: _521  and  _522
REMARK  204  A    between atoms: _525  and  _527
REMARK  205  A    between atoms: _527  and  _528
REMARK  206  A    between atoms: _527  and  _530
REMARK  207  A    between atoms: _530  and  _531
REMARK  208  A    between atoms: _536  and  _537
REMARK  209  A    between atoms: _539  and  _541
REMARK  210  A    between atoms: _541  and  _542
REMARK  211  A    between atoms: _541  and  _544
REMARK  212  A    between atoms: _544  and  _545
REMARK  213  A    between atoms: _548  and  _550
REMARK  214  A    between atoms: _550  and  _551
REMARK  215  A    between atoms: _550  and  _553
REMARK  216  A    between atoms: _553  and  _554
REMARK  217  A    between atoms: _554  and  _555
REMARK  218  A    between atoms: _558  and  _560
REMARK  219  A    between atoms: _560  and  _561
REMARK  220  A    between atoms: _560  and  _563
REMARK  221  A    between atoms: _563  and  _564
REMARK  222  A    between atoms: _569  and  _571
REMARK  223  A    between atoms: _571  and  _572
REMARK  224  A    between atoms: _574  and  _576
REMARK  225  A    between atoms: _576  and  _577
REMARK  226  A    between atoms: _576  and  _579
REMARK  227  A    between atoms: _579  and  _580
REMARK  228  A    between atoms: _580  and  _581
REMARK  229  A    between atoms: _583  and  _585
REMARK  230  A    between atoms: _585  and  _586
REMARK  231  A    between atoms: _585  and  _588
REMARK  232  A    between atoms: _588  and  _589
REMARK  233  A    between atoms: _592  and  _594
REMARK  234  A    between atoms: _594  and  _595
REMARK  235  A    between atoms: _594  and  _597
REMARK  236  A    between atoms: _597  and  _598
REMARK  237  A    between atoms: _608  and  _610
REMARK  238  A    between atoms: _610  and  _611
REMARK  239  A    between atoms: _610  and  _613
REMARK  240  A    between atoms: _613  and  _614
REMARK  241  A    between atoms: _616  and  _618
REMARK  242  A    between atoms: _618  and  _619
REMARK  243  A    between atoms: _618  and  _621
REMARK  244  A    between atoms: _621  and  _622
REMARK  245  A    between atoms: _627  and  _629
REMARK  246  A    between atoms: _629  and  _630
REMARK  247  A    between atoms: _629  and  _632
REMARK  248  A    between atoms: _632  and  _633
REMARK  249  A    between atoms: _639  and  _641
REMARK  250  A    between atoms: _641  and  _642
REMARK  251  A    between atoms: _641  and  _644
REMARK  252  A    between atoms: _644  and  _645
REMARK  253  A    between atoms: _645  and  _646
REMARK  254  A    between atoms: _649  and  _651
REMARK  255  A    between atoms: _651  and  _652
REMARK  256  A    between atoms: _651  and  _654
REMARK  257  A    between atoms: _654  and  _655
REMARK  258  A    between atoms: _665  and  _667
REMARK  259  A    between atoms: _667  and  _668
REMARK  260  A    between atoms: _667  and  _670
REMARK  261  A    between atoms: _670  and  _671
REMARK  262  A    between atoms: _674  and  _676
REMARK  263  A    between atoms: _676  and  _677
REMARK  264  A    between atoms: _676  and  _679
REMARK  265  A    between atoms: _679  and  _680
REMARK  266  A    between atoms: _682  and  _684
REMARK  267  A    between atoms: _684  and  _685
REMARK  268  A    between atoms: _684  and  _687
REMARK  269  A    between atoms: _687  and  _688
REMARK  270  A    between atoms: _690  and  _692
REMARK  271  A    between atoms: _692  and  _693
REMARK  272  A    between atoms: _692  and  _695
REMARK  273  A    between atoms: _695  and  _696
REMARK                            x       y       z     vdW  Elec       q    Type
REMARK                         _______ _______ _______ _____ _____    ______ ____
ROOT
ATOM      1  CA  TRP A   1       7.335   7.644  32.438  0.00  0.00    +0.149 C 
ENDROOT
BRANCH   1   2
ATOM      2  C   TRP A   1       6.067   8.492  32.152  0.00  0.00    +0.239 C 
ATOM      3  O   TRP A   1       5.568   9.150  33.081  0.00  0.00    -0.274 OA
ATOM      4  N   SER A   2       5.533   8.524  30.903  0.00  0.00    -0.296 N 
ATOM      5  H   SER A   2       4.715   9.152  30.767  0.00  0.00    +0.150 HD
BRANCH   4   6
ATOM      6  CA  SER A   2       5.977   7.778  29.733  0.00  0.00    +0.166 C 
BRANCH   6   7
ATOM      7  C   SER A   2       6.136   8.752  28.561  0.00  0.00    +0.229 C 
ATOM      8  O   SER A   2       5.603   9.855  28.600  0.00  0.00    -0.286 OA
ENDBRANCH   6   7
BRANCH   6   9
ATOM      9  CB  SER A   2       4.910   6.755  29.357  0.00  0.00    +0.165 C 
BRANCH   9  10
ATOM     10  OG  SER A   2       5.286   5.956  28.237  0.00  0.00    -0.380 OA
ATOM     11  H   SER A   2       6.118   5.464  28.449  0.00  0.00    +0.211 HD
ENDBRANCH   9  10
ENDBRANCH   6   9
ENDBRANCH   4   6
ENDBRANCH   1   2
BRANCH   1  12
ATOM     12  N   TRP A   1       8.406   8.576  32.772  0.00  0.00    -0.238 NA
ATOM     13  H   TRP A   1       8.555   8.834  33.769  0.00  0.00    +0.142 HD
ENDBRANCH   1  12
BRANCH   1  14
ATOM     14  CB  TRP A   1       7.083   6.580  33.546  0.00  0.00    +0.054 C 
BRANCH  14  15
ATOM     15  CG  TRP A   1       5.979   5.639  33.038  0.00  0.00    -0.002 A 
ATOM     16  CD1 TRP A   1       4.595   5.830  33.133  0.00  0.00    +0.068 A 
ATOM     17  NE1 TRP A   1       3.940   4.833  32.468  0.00  0.00    -0.352 N 
ATOM     18  HE1 TRP A   1       2.908   4.738  32.386  0.00  0.00    +0.166 HD
ATOM     19  CE2 TRP A   1       4.870   3.973  31.923  0.00  0.00    +0.056 A 
ATOM     20  CZ2 TRP A   1       4.688   2.845  31.139  0.00  0.00    +0.017 A 
ATOM     21  CH2 TRP A   1       5.826   2.194  30.712  0.00  0.00    +0.001 A 
ATOM     22  CZ3 TRP A   1       7.098   2.650  31.032  0.00  0.00    +0.000 A 
ATOM     23  CE3 TRP A   1       7.286   3.766  31.783  0.00  0.00    +0.001 A 
ATOM     24  CD2 TRP A   1       6.158   4.471  32.234  0.00  0.00    +0.013 A 
ENDBRANCH  14  15
ENDBRANCH   1  14
TORSDOF 8
REMARK  Name = ../refined-set-2016/3f5j/3f5j_pocket.pdb
REMARK  273 active torsions:
REMARK  status: ('A' for Active; 'I' for Inactive)
REMARK    1  A    between atoms: _1  and  _3
REMARK    2  A    between atoms: _3  and  _4
REMARK    3  A    between atoms: _3  and  _6
REMARK    4  A    between atoms: _9  and  _11
REMARK    5  A    between atoms: _11  and  _12
REMARK    6  A    between atoms: _11  and  _14
REMARK    7  A    between atoms: _14  and  _15
REMARK    8  A    between atoms: _18  and  _20
REMARK    9  A    between atoms: _20  and  _21
REMARK   10  A    between atoms: _20  and  _23
REMARK   11  A    between atoms: _23  and  _24
REMARK   12  A    between atoms: _26  and  _28
REMARK   13  A    between atoms: _28  and  _29
REMARK   14  A    between atoms: _28  and  _31
REMARK   15  A    between atoms: _31  and  _32
REMARK   16  A    between atoms: _32  and  _33
REMARK   17  A    between atoms: _38  and  _40
REMARK   18  A    between atoms: _40  and  _41
REMARK   19  A    between atoms: _40  and  _43
REMARK   20  A    between atoms: _43  and  _44
REMARK   21  A    between atoms: _44  and  _45
REMARK   22  A    between atoms: _45  and  _46
REMARK   23  A    between atoms: _55  and  _57
REMARK   24  A    between atoms: _57  and  _58
REMARK   25  A    between atoms: _57  and  _60
REMARK   26  A    between atoms: _60  and  _61
REMARK   27  A    between atoms: _63  and  _65
REMARK   28  A    between atoms: _65  and  _66
REMARK   29  A    between atoms: _65  and  _68
REMARK   30  A    between atoms: _68  and  _69
REMARK   31  A    between atoms: _74  and  _76
REMARK   32  A    between atoms: _76  and  _77
REMARK   33  A    between atoms: _76  and  _79
REMARK   34  A    between atoms: _79  and  _80
REMARK   35  A    between atoms: _85  and  _87
REMARK   36  A    between atoms: _87  and  _88
REMARK   37  A    between atoms: _87  and  _90
REMARK   38  A    between atoms: _90  and  _91
REMARK   39  A    between atoms: _96  and  _97
REMARK   40  A    between atoms: _99  and  _101
REMARK   41  A    between atoms: _101  and  _102
REMARK   42  A    between atoms: _101  and  _104
REMARK   43  A    between atoms: _104  and  _105
REMARK   44  A    between atoms: _110  and  _112
REMARK   45  A    between atoms: _112  and  _113
REMARK   46  A    between atoms: _112  and  _115
REMARK   47  A    between atoms: _115  and  _116
REMARK   48  A    between atoms: _116  and  _117
REMARK   49  A    between atoms: _122  and  _124
REMARK   50  A    between atoms: _124  and  _125
REMARK   51  A    between atoms: _124  and  _127
REMARK   52  A    between atoms: _127  and  _128
REMARK   53  A    between atoms: _128  and  _129
REMARK   54  A    between atoms: _129  and  _130
REMARK   55  A    between atoms: _139  and  _141
REMARK   56  A    between atoms: _141  and  _142
REMARK   57  A    between atoms: _141  and  _144
REMARK   58  A    between atoms: _144  and  _145
REMARK   59  A    between atoms: _148  and  _150
REMARK   60  A    between atoms: _150  and  _151
REMARK   61  A    between atoms: _150  and  _153
REMARK   62  A    between atoms: _153  and  _154
REMARK   63  A    between atoms: _157  and  _159
REMARK   64  A    between atoms: _159  and  _160
REMARK   65  A    between atoms: _159  and  _162
REMARK   66  A    between atoms: _162  and  _163
REMARK   67  A    between atoms: _166  and  _168
REMARK   68  A    between atoms: _168  and  _169
REMARK   69  A    between atoms: _168  and  _171
REMARK   70  A    between atoms: _171  and  _172
REMARK   71  A    between atoms: _175  and  _177
REMARK   72  A    between atoms: _177  and  _178
REMARK   73  A    between atoms: _177  and  _180
REMARK   74  A    between atoms: _180  and  _181
REMARK   75  A    between atoms: _181  and  _182
REMARK   76  A    between atoms: _187  and  _189
REMARK   77  A    between atoms: _189  and  _190
REMARK   78  A    between atoms: _189  and  _192
REMARK   79  A    between atoms: _192  and  _193
REMARK   80  A    between atoms: _196  and  _198
REMARK   81  A    between atoms: _198  and  _199
REMARK   82  A    between atoms: _198  and  _201
REMARK   83  A    between atoms: _201  and  _202
REMARK   84  A    between atoms: _207  and  _209
REMARK   85  A    between atoms: _209  and  _210
REMARK   86  A    between atoms: _209  and  _212
REMARK   87  A    between atoms: _215  and  _217
REMARK   88  A    between atoms: _217  and  _218
REMARK   89  A    between atoms: _217  and  _220
REMARK   90  A    between atoms: _220  and  _221
REMARK   91  A    between atoms: _224  and  _226
REMARK   92  A    between atoms: _226  and  _227
REMARK   93  A    between atoms: _226  and  _229
REMARK   94  A    between atoms: _229  and  _230
REMARK   95  A    between atoms: _233  and  _235
REMARK   96  A    between atoms: _235  and  _236
REMARK   97  A    between atoms: _235  and  _238
REMARK   98  A    between atoms: _238  and  _239
REMARK   99  A    between atoms: _245  and  _247
REMARK  100  A    between atoms: _247  and  _248
REMARK  101  A    between atoms: _247  and  _250
REMARK  102  A    between atoms: _250  and  _251
REMARK  103  A    between atoms: _256  and  _258
REMARK  104  A    between atoms: _258  and  _259
REMARK  105  A    between atoms: _258  and  _261
REMARK  106  A    between atoms: _261  and  _262
REMARK  107  A    between atoms: _272  and  _274
REMARK  108  A    between atoms: _274  and  _275
REMARK  109  A    between atoms: _274  and  _277
REMARK  110  A    between atoms: _277  and  _278
REMARK  111  A    between atoms: _283  and  _284
REMARK  112  A    between atoms: _286  and  _288
REMARK  113  A    between atoms: _288  and  _289
REMARK  114  A    between atoms: _288  and  _291
REMARK  115  A    between atoms: _291  and  _292
REMARK  116  A    between atoms: _297  and  _299
REMARK  117  A    between atoms: _299  and  _300
REMARK  118  A    between atoms: _299  and  _302
REMARK  119  A    between atoms: _302  and  _303
REMARK  120  A    between atoms: _308  and  _310
REMARK  121  A    between atoms: _310  and  _311
REMARK  122  A    between atoms: _310  and  _313
REMARK  123  A    between atoms: _313  and  _314
REMARK  124  A    between atoms: _314  and  _315
REMARK  125  A    between atoms: _320  and  _322
REMARK  126  A    between atoms: _322  and  _323
REMARK  127  A    between atoms: _322  and  _325
REMARK  128  A    between atoms: _325  and  _326
REMARK  129  A    between atoms: _331  and  _332
REMARK  130  A    between atoms: _334  and  _336
REMARK  131  A    between atoms: _336  and  _337
REMARK  132  A    between atoms: _336  and  _339
REMARK  133  A    between atoms: _339  and  _340
REMARK  134  A    between atoms: _343  and  _345
REMARK  135  A    between atoms: _345  and  _346
REMARK  136  A    between atoms: _349  and  _351
REMARK  137  A    between atoms: _351  and  _352
REMARK  138  A    between atoms: _351  and  _354
REMARK  139  A    between atoms: _354  and  _355
REMARK  140  A    between atoms: _357  and  _359
REMARK  141  A    between atoms: _359  and  _360
REMARK  142  A    between atoms: _359  and  _362
REMARK  143  A    between atoms: _362  and  _363
REMARK  144  A    between atoms: _363  and  _364
REMARK  145  A    between atoms: _366  and  _368
REMARK  146  A    between atoms: _368  and  _369
REMARK  147  A    between atoms: _368  and  _371
REMARK  148  A    between atoms: _371  and  _372
REMARK  149  A    between atoms: _374  and  _376
REMARK  150  A    between atoms: _376  and  _377
REMARK  151  A    between atoms: _376  and  _379
REMARK  152  A    between atoms: _379  and  _380
REMARK  153  A    between atoms: _385  and  _386
REMARK  154  A    between atoms: _388  and  _390
REMARK  155  A    between atoms: _390  and  _391
REMARK  156  A    between atoms: _390  and  _393
REMARK  157  A    between atoms: _393  and  _394
REMARK  158  A    between atoms: _396  and  _398
REMARK  159  A    between atoms: _398  and  _399
REMARK  160  A    between atoms: _402  and  _404
REMARK  161  A    between atoms: _404  and  _405
REMARK  162  A    between atoms: _404  and  _407
REMARK  163  A    between atoms: _407  and  _408
REMARK  164  A    between atoms: _418  and  _420
REMARK  165  A    between atoms: _420  and  _421
REMARK  166  A    between atoms: _420  and  _423
REMARK  167  A    between atoms: _426  and  _428
REMARK  168  A    between atoms: _428  and  _429
REMARK  169  A    between atoms: _428  and  _431
REMARK  170  A    between atoms: _431  and  _432
REMARK  171  A    between atoms: _435  and  _437
REMARK  172  A    between atoms: _437  and  _438
REMARK  173  A    between atoms: _437  and  _440
REMARK  174  A    between atoms: _440  and  _441
REMARK  175  A    between atoms: _446  and  _447
REMARK  176  A    between atoms: _449  and  _451
REMARK  177  A    between atoms: _451  and  _452
REMARK  178  A    between atoms: _451  and  _454
REMARK  179  A    between atoms: _457  and  _459
REMARK  180  A    between atoms: _459  and  _460
REMARK  181  A    between atoms: _459  and  _462
REMARK  182  A    between atoms: _462  and  _463
REMARK  183  A    between atoms: _469  and  _471
REMARK  184  A    between atoms: _471  and  _472
REMARK  185  A    between atoms: _471  and  _474
REMARK  186  A    between atoms: _474  and  _475
REMARK  187  A    between atoms: _475  and  _476
REMARK  188  A    between atoms: _481  and  _483
REMARK  189  A    between atoms: _483  and  _484
REMARK  190  A    between atoms: _483  and  _486
REMARK  191  A    between atoms: _486  and  _487
REMARK  192  A    between atoms: _489  and  _491
REMARK  193  A    between atoms: _491  and  _492
REMARK  194  A    between atoms: _491  and  _494
REMARK  195  A    between atoms: _494  and  _495
REMARK  196  A    between atoms: _500  and  _502
REMARK  197  A    between atoms: _502  and  _503
REMARK  198  A    between atoms: _502  and  _505
REMARK  199  A    between atoms: _505  and  _506
REMARK  200  A    between atoms: _516  and  _518
REMARK  201  A    between atoms: _518  and  _519
REMARK  202  A    between atoms: _518  and  _521
REMARK  203  A    between atoms: _521  and  _522
REMARK  204  A    between atoms: _525  and  _527
REMARK  205  A    between atoms: _527  and  _528
REMARK  206  A    between atoms: _527  and  _530
REMARK  207  A    between atoms: _530  and  _531
REMARK  208  A    between atoms: _536  and  _537
REMARK  209  A    between atoms: _539  and  _541
REMARK  210  A    between atoms: _541  and  _542
REMARK  211  A    between atoms: _541  and  _544
REMARK  212  A    between atoms: _544  and  _545
REMARK  213  A    between atoms: _548  and  _550
REMARK  214  A    between atoms: _550  and  _551
REMARK  215  A    between atoms: _550  and  _553
REMARK  216  A    between atoms: _553  and  _554
REMARK  217  A    between atoms: _554  and  _555
REMARK  218  A    between atoms: _558  and  _560
REMARK  219  A    between atoms: _560  and  _561
REMARK  220  A    between atoms: _560  and  _563
REMARK  221  A    between atoms: _563  and  _564
REMARK  222  A    between atoms: _569  and  _571
REMARK  223  A    between atoms: _571  and  _572
REMARK  224  A    between atoms: _574  and  _576
REMARK  225  A    between atoms: _576  and  _577
REMARK  226  A    between atoms: _576  and  _579
REMARK  227  A    between atoms: _579  and  _580
REMARK  228  A    between atoms: _580  and  _581
REMARK  229  A    between atoms: _583  and  _585
REMARK  230  A    between atoms: _585  and  _586
REMARK  231  A    between atoms: _585  and  _588
REMARK  232  A    between atoms: _588  and  _589
REMARK  233  A    between atoms: _592  and  _594
REMARK  234  A    between atoms: _594  and  _595
REMARK  235  A    between atoms: _594  and  _597
REMARK  236  A    between atoms: _597  and  _598
REMARK  237  A    between atoms: _608  and  _610
REMARK  238  A    between atoms: _610  and  _611
REMARK  239  A    between atoms: _610  and  _613
REMARK  240  A    between atoms: _613  and  _614
REMARK  241  A    between atoms: _616  and  _618
REMARK  242  A    between atoms: _618  and  _619
REMARK  243  A    between atoms: _618  and  _621
REMARK  244  A    between atoms: _621  and  _622
REMARK  245  A    between atoms: _627  and  _629
REMARK  246  A    between atoms: _629  and  _630
REMARK  247  A    between atoms: _629  and  _632
REMARK  248  A    between atoms: _632  and  _633
REMARK  249  A    between atoms: _639  and  _641
REMARK  250  A    between atoms: _641  and  _642
REMARK  251  A    between atoms: _641  and  _644
REMARK  252  A    between atoms: _644  and  _645
REMARK  253  A    between atoms: _645  and  _646
REMARK  254  A    between atoms: _649  and  _651
REMARK  255  A    between atoms: _651  and  _652
REMARK  256  A    between atoms: _651  and  _654
REMARK  257  A    between atoms: _654  and  _655
REMARK  258  A    between atoms: _665  and  _667
REMARK  259  A    between atoms: _667  and  _668
REMARK  260  A    between atoms: _667  and  _670
REMARK  261  A    between atoms: _670  and  _671
REMARK  262  A    between atoms: _674  and  _676
REMARK  263  A    between atoms: _676  and  _677
REMARK  264  A    between atoms: _676  and  _679
REMARK  265  A    between atoms: _679  and  _680
REMARK  266  A    between atoms: _682  and  _684
REMARK  267  A    between atoms: _684  and  _685
REMARK  268  A    between atoms: _684  and  _687
REMARK  269  A    between atoms: _687  and  _688
REMARK  270  A    between atoms: _690  and  _692
REMARK  271  A    between atoms: _692  and  _693
REMARK  272  A    between atoms: _692  and  _695
REMARK  273  A    between atoms: _695  and  _696
REMARK                            x       y       z     vdW  Elec       q    Type
REMARK                         _______ _______ _______ _____ _____    ______ ____
ROOT
ATOM      1  C   GLU A   3      -2.048  -0.324  32.713  0.00  0.00    +0.241 C 
ATOM      2  O   GLU A   3      -2.789  -0.184  33.709  0.00  0.00    -0.273 OA
ATOM      3  N   TRP A   4      -1.603  -1.510  32.308  0.00  0.00    -0.297 N 
ATOM      4  H   TRP A   4      -1.033  -1.556  31.439  0.00  0.00    +0.150 HD
ENDROOT
BRANCH   3   5
ATOM      5  CA  TRP A   4      -1.878  -2.753  33.029  0.00  0.00    +0.153 C 
BRANCH   5   6
ATOM      6  C   TRP A   4      -3.383  -2.866  33.415  0.00  0.00    +0.241 C 
ATOM      7  N   LEU A   5      -3.715  -2.986  34.713  0.00  0.00    -0.297 N 
ATOM      8  H   LEU A   5      -2.978  -2.918  35.444  0.00  0.00    +0.150 HD
ATOM      9  O   TRP A   4      -4.226  -2.773  32.521  0.00  0.00    -0.273 OA
BRANCH   7  10
ATOM     10  CA  LEU A   5      -5.124  -3.214  35.107  0.00  0.00    +0.149 C 
BRANCH  10  11
ATOM     11  C   LEU A   5      -6.024  -2.044  34.720  0.00  0.00    +0.241 C 
ATOM     12  O   LEU A   5      -7.222  -2.194  34.590  0.00  0.00    -0.273 OA
ATOM     13  N   SER A   6      -5.436  -0.858  34.564  0.00  0.00    -0.296 N 
ATOM     14  H   SER A   6      -4.406  -0.777  34.687  0.00  0.00    +0.150 HD
BRANCH  13  15
ATOM     15  CA  SER A   6      -6.219   0.334  34.222  0.00  0.00    +0.166 C 
BRANCH  15  16
ATOM     16  C   SER A   6      -6.472   0.407  32.716  0.00  0.00    +0.229 C 
ATOM     17  O   SER A   6      -7.255   1.250  32.259  0.00  0.00    -0.286 OA
ENDBRANCH  15  16
BRANCH  15  18
ATOM     18  CB  SER A   6      -5.489   1.610  34.685  0.00  0.00    +0.165 C 
BRANCH  18  19
ATOM     19  OG  SER A   6      -5.419   1.677  36.085  0.00  0.00    -0.380 OA
ATOM     20  H   SER A   6      -4.946   2.505  36.351  0.00  0.00    +0.211 HD
ENDBRANCH  18  19
ENDBRANCH  15  18
ENDBRANCH  13  15
ENDBRANCH  10  11
BRANCH  10  21
ATOM     21  CB  LEU A   5      -5.266  -3.497  36.617  0.00  0.00    +0.029 C 
BRANCH  21  22
ATOM     22  CG  LEU A   5      -4.477  -4.681  37.213  0.00  0.00    +0.002 C 
ATOM     23  CD2 LEU A   5      -4.818  -4.867  38.664  0.00  0.00    +0.000 C 
ATOM     24  CD1 LEU A   5      -4.806  -5.927  36.443  0.00  0.00    +0.000 C 
ENDBRANCH  21  22
ENDBRANCH  10  21
ENDBRANCH   7  10
ENDBRANCH   5   6
BRANCH   5  25
ATOM     25  CB  TRP A   4      -0.922  -2.877  34.221  0.00  0.00    +0.057 C 
BRANCH  25  26
ATOM     26  CG  TRP A   4       0.509  -2.681  33.834  0.00  0.00    -0.002 A 
ATOM     27  CD1 TRP A   4       1.383  -1.734  34.317  0.00  0.00    +0.068 A 
ATOM     28  NE1 TRP A   4       2.608  -1.881  33.710  0.00  0.00    -0.352 N 
ATOM     29  HE1 TRP A   4       3.441  -1.283  33.882  0.00  0.00    +0.166 HD
ATOM     30  CE2 TRP A   4       2.557  -2.941  32.842  0.00  0.00    +0.056 A 
ATOM     31  CZ2 TRP A   4       3.550  -3.468  32.004  0.00  0.00    +0.017 A 
ATOM     32  CH2 TRP A   4       3.233  -4.544  31.235  0.00  0.00    +0.001 A 
ATOM     33  CZ3 TRP A   4       1.919  -5.118  31.274  0.00  0.00    +0.000 A 
ATOM     34  CE3 TRP A   4       0.940  -4.587  32.102  0.00  0.00    +0.001 A 
ATOM     35  CD2 TRP A   4       1.257  -3.474  32.900  0.00  0.00    +0.013 A 
ENDBRANCH  25  26
ENDBRANCH   5  25
ENDBRANCH   3   5
BRANCH   1  36
ATOM     36  CA  GLU A   3      -1.605   0.885  31.842  0.00  0.00    +0.149 C 
BRANCH  36  38
ATOM     37  C   PHE A   2      -1.258   0.307  29.505  0.00  0.00    +0.241 C 
ATOM     38  N   GLU A   3      -2.051   0.821  30.437  0.00  0.00    -0.297 N 
ATOM     39  H   GLU A   3      -2.991   1.180  30.176  0.00  0.00    +0.150 HD
ATOM     40  O   PHE A   2      -0.158  -0.194  29.769  0.00  0.00    -0.273 OA
BRANCH  37  41
ATOM     41  CA  PHE A   2      -1.746   0.380  28.064  0.00  0.00    +0.153 C 
BRANCH  41  44
ATOM     42  C   ASN A   1      -1.198   2.687  27.490  0.00  0.00    +0.239 C 
ATOM     43  O   ASN A   1      -2.139   3.163  28.179  0.00  0.00    -0.274 OA
ATOM     44  N   PHE A   2      -0.941   1.386  27.370  0.00  0.00    -0.297 N 
ATOM     45  H   PHE A   2      -0.150   1.078  26.769  0.00  0.00    +0.150 HD
BRANCH  42  46
ATOM     46  CA  ASN A   1      -0.280   3.635  26.715  0.00  0.00    +0.154 C 
BRANCH  46  47
ATOM     47  N   ASN A   1      -0.447   5.011  27.136  0.00  0.00    -0.238 NA
ATOM     48  H   ASN A   1      -0.776   5.241  28.096  0.00  0.00    +0.142 HD
ENDBRANCH  46  47
BRANCH  46  49
ATOM     49  CB  ASN A   1       1.219   3.215  26.753  0.00  0.00    +0.111 C 
BRANCH  49  50
ATOM     50  CG  ASN A   1       1.828   3.298  28.146  0.00  0.00    +0.221 C 
ATOM     51  OD1 ASN A   1       1.344   2.662  29.087  0.00  0.00    -0.275 OA
ATOM     52  ND2 ASN A   1       2.873   4.117  28.295  0.00  0.00    -0.329 N 
ATOM     53 HD21 ASN A   1       3.310   4.237  29.231  0.00  0.00    +0.145 HD
ATOM     54 HD22 ASN A   1       3.249   4.634  27.475  0.00  0.00    +0.145 HD
ENDBRANCH  49  50
ENDBRANCH  46  49
ENDBRANCH  42  46
ENDBRANCH  41  44
BRANCH  41  55
ATOM     55  CB  PHE A   2      -1.591  -0.983  27.358  0.00  0.00    +0.055 C 
BRANCH  55  56
ATOM     56  CG  PHE A   2      -2.277  -2.102  28.060  0.00  0.00    -0.020 A 
ATOM     57  CD2 PHE A   2      -1.558  -2.981  28.851  0.00  0.00    -0.004 A 
ATOM     58  CE2 PHE A   2      -2.217  -4.016  29.548  0.00  0.00    -0.000 A 
ATOM     59  CZ  PHE A   2      -3.598  -4.177  29.420  0.00  0.00    -0.000 A 
ATOM     60  CE1 PHE A   2      -4.321  -3.294  28.615  0.00  0.00    -0.000 A 
ATOM     61  CD1 PHE A   2      -3.651  -2.250  27.955  0.00  0.00    -0.004 A 
ENDBRANCH  55  56
ENDBRANCH  41  55
ENDBRANCH  37  41
ENDBRANCH  36  38
BRANCH  36  62
ATOM     62  CB  GLU A   3      -1.955   2.253  32.461  0.00  0.00    +0.041 C 
BRANCH  62  63
ATOM     63  CG  GLU A   3      -1.458   2.494  33.918  0.00  0.00    +0.116 C 
BRANCH  63  64
ATOM     64  CD  GLU A   3       0.026   2.261  34.159  0.00  0.00    +0.365 C 
ATOM     65  OE2 GLU A   3       0.347   1.866  35.299  0.00  0.00    -0.246 OA
ATOM     66  OE1 GLU A   3       0.888   2.459  33.263  0.00  0.00    -0.246 OA
ENDBRANCH  63  64
ENDBRANCH  62  63
ENDBRANCH  36  62
ENDBRANCH   1  36
TORSDOF 25
REMARK  Name = ../refined-set-2016/3f5j/3f5j_pocket.pdb
REMARK  273 active torsions:
REMARK  status: ('A' for Active; 'I' for Inactive)
REMARK    1  A    between atoms: _1  and  _3
REMARK    2  A    between atoms: _3  and  _4
REMARK    3  A    between atoms: _3  and  _6
REMARK    4  A    between atoms: _9  and  _11
REMARK    5  A    between atoms: _11  and  _12
REMARK    6  A    between atoms: _11  and  _14
REMARK    7  A    between atoms: _14  and  _15
REMARK    8  A    between atoms: _18  and  _20
REMARK    9  A    between atoms: _20  and  _21
REMARK   10  A    between atoms: _20  and  _23
REMARK   11  A    between atoms: _23  and  _24
REMARK   12  A    between atoms: _26  and  _28
REMARK   13  A    between atoms: _28  and  _29
REMARK   14  A    between atoms: _28  and  _31
REMARK   15  A    between atoms: _31  and  _32
REMARK   16  A    between atoms: _32  and  _33
REMARK   17  A    between atoms: _38  and  _40
REMARK   18  A    between atoms: _40  and  _41
REMARK   19  A    between atoms: _40  and  _43
REMARK   20  A    between atoms: _43  and  _44
REMARK   21  A    between atoms: _44  and  _45
REMARK   22  A    between atoms: _45  and  _46
REMARK   23  A    between atoms: _55  and  _57
REMARK   24  A    between atoms: _57  and  _58
REMARK   25  A    between atoms: _57  and  _60
REMARK   26  A    between atoms: _60  and  _61
REMARK   27  A    between atoms: _63  and  _65
REMARK   28  A    between atoms: _65  and  _66
REMARK   29  A    between atoms: _65  and  _68
REMARK   30  A    between atoms: _68  and  _69
REMARK   31  A    between atoms: _74  and  _76
REMARK   32  A    between atoms: _76  and  _77
REMARK   33  A    between atoms: _76  and  _79
REMARK   34  A    between atoms: _79  and  _80
REMARK   35  A    between atoms: _85  and  _87
REMARK   36  A    between atoms: _87  and  _88
REMARK   37  A    between atoms: _87  and  _90
REMARK   38  A    between atoms: _90  and  _91
REMARK   39  A    between atoms: _96  and  _97
REMARK   40  A    between atoms: _99  and  _101
REMARK   41  A    between atoms: _101  and  _102
REMARK   42  A    between atoms: _101  and  _104
REMARK   43  A    between atoms: _104  and  _105
REMARK   44  A    between atoms: _110  and  _112
REMARK   45  A    between atoms: _112  and  _113
REMARK   46  A    between atoms: _112  and  _115
REMARK   47  A    between atoms: _115  and  _116
REMARK   48  A    between atoms: _116  and  _117
REMARK   49  A    between atoms: _122  and  _124
REMARK   50  A    between atoms: _124  and  _125
REMARK   51  A    between atoms: _124  and  _127
REMARK   52  A    between atoms: _127  and  _128
REMARK   53  A    between atoms: _128  and  _129
REMARK   54  A    between atoms: _129  and  _130
REMARK   55  A    between atoms: _139  and  _141
REMARK   56  A    between atoms: _141  and  _142
REMARK   57  A    between atoms: _141  and  _144
REMARK   58  A    between atoms: _144  and  _145
REMARK   59  A    between atoms: _148  and  _150
REMARK   60  A    between atoms: _150  and  _151
REMARK   61  A    between atoms: _150  and  _153
REMARK   62  A    between atoms: _153  and  _154
REMARK   63  A    between atoms: _157  and  _159
REMARK   64  A    between atoms: _159  and  _160
REMARK   65  A    between atoms: _159  and  _162
REMARK   66  A    between atoms: _162  and  _163
REMARK   67  A    between atoms: _166  and  _168
REMARK   68  A    between atoms: _168  and  _169
REMARK   69  A    between atoms: _168  and  _171
REMARK   70  A    between atoms: _171  and  _172
REMARK   71  A    between atoms: _175  and  _177
REMARK   72  A    between atoms: _177  and  _178
REMARK   73  A    between atoms: _177  and  _180
REMARK   74  A    between atoms: _180  and  _181
REMARK   75  A    between atoms: _181  and  _182
REMARK   76  A    between atoms: _187  and  _189
REMARK   77  A    between atoms: _189  and  _190
REMARK   78  A    between atoms: _189  and  _192
REMARK   79  A    between atoms: _192  and  _193
REMARK   80  A    between atoms: _196  and  _198
REMARK   81  A    between atoms: _198  and  _199
REMARK   82  A    between atoms: _198  and  _201
REMARK   83  A    between atoms: _201  and  _202
REMARK   84  A    between atoms: _207  and  _209
REMARK   85  A    between atoms: _209  and  _210
REMARK   86  A    between atoms: _209  and  _212
REMARK   87  A    between atoms: _215  and  _217
REMARK   88  A    between atoms: _217  and  _218
REMARK   89  A    between atoms: _217  and  _220
REMARK   90  A    between atoms: _220  and  _221
REMARK   91  A    between atoms: _224  and  _226
REMARK   92  A    between atoms: _226  and  _227
REMARK   93  A    between atoms: _226  and  _229
REMARK   94  A    between atoms: _229  and  _230
REMARK   95  A    between atoms: _233  and  _235
REMARK   96  A    between atoms: _235  and  _236
REMARK   97  A    between atoms: _235  and  _238
REMARK   98  A    between atoms: _238  and  _239
REMARK   99  A    between atoms: _245  and  _247
REMARK  100  A    between atoms: _247  and  _248
REMARK  101  A    between atoms: _247  and  _250
REMARK  102  A    between atoms: _250  and  _251
REMARK  103  A    between atoms: _256  and  _258
REMARK  104  A    between atoms: _258  and  _259
REMARK  105  A    between atoms: _258  and  _261
REMARK  106  A    between atoms: _261  and  _262
REMARK  107  A    between atoms: _272  and  _274
REMARK  108  A    between atoms: _274  and  _275
REMARK  109  A    between atoms: _274  and  _277
REMARK  110  A    between atoms: _277  and  _278
REMARK  111  A    between atoms: _283  and  _284
REMARK  112  A    between atoms: _286  and  _288
REMARK  113  A    between atoms: _288  and  _289
REMARK  114  A    between atoms: _288  and  _291
REMARK  115  A    between atoms: _291  and  _292
REMARK  116  A    between atoms: _297  and  _299
REMARK  117  A    between atoms: _299  and  _300
REMARK  118  A    between atoms: _299  and  _302
REMARK  119  A    between atoms: _302  and  _303
REMARK  120  A    between atoms: _308  and  _310
REMARK  121  A    between atoms: _310  and  _311
REMARK  122  A    between atoms: _310  and  _313
REMARK  123  A    between atoms: _313  and  _314
REMARK  124  A    between atoms: _314  and  _315
REMARK  125  A    between atoms: _320  and  _322
REMARK  126  A    between atoms: _322  and  _323
REMARK  127  A    between atoms: _322  and  _325
REMARK  128  A    between atoms: _325  and  _326
REMARK  129  A    between atoms: _331  and  _332
REMARK  130  A    between atoms: _334  and  _336
REMARK  131  A    between atoms: _336  and  _337
REMARK  132  A    between atoms: _336  and  _339
REMARK  133  A    between atoms: _339  and  _340
REMARK  134  A    between atoms: _343  and  _345
REMARK  135  A    between atoms: _345  and  _346
REMARK  136  A    between atoms: _349  and  _351
REMARK  137  A    between atoms: _351  and  _352
REMARK  138  A    between atoms: _351  and  _354
REMARK  139  A    between atoms: _354  and  _355
REMARK  140  A    between atoms: _357  and  _359
REMARK  141  A    between atoms: _359  and  _360
REMARK  142  A    between atoms: _359  and  _362
REMARK  143  A    between atoms: _362  and  _363
REMARK  144  A    between atoms: _363  and  _364
REMARK  145  A    between atoms: _366  and  _368
REMARK  146  A    between atoms: _368  and  _369
REMARK  147  A    between atoms: _368  and  _371
REMARK  148  A    between atoms: _371  and  _372
REMARK  149  A    between atoms: _374  and  _376
REMARK  150  A    between atoms: _376  and  _377
REMARK  151  A    between atoms: _376  and  _379
REMARK  152  A    between atoms: _379  and  _380
REMARK  153  A    between atoms: _385  and  _386
REMARK  154  A    between atoms: _388  and  _390
REMARK  155  A    between atoms: _390  and  _391
REMARK  156  A    between atoms: _390  and  _393
REMARK  157  A    between atoms: _393  and  _394
REMARK  158  A    between atoms: _396  and  _398
REMARK  159  A    between atoms: _398  and  _399
REMARK  160  A    between atoms: _402  and  _404
REMARK  161  A    between atoms: _404  and  _405
REMARK  162  A    between atoms: _404  and  _407
REMARK  163  A    between atoms: _407  and  _408
REMARK  164  A    between atoms: _418  and  _420
REMARK  165  A    between atoms: _420  and  _421
REMARK  166  A    between atoms: _420  and  _423
REMARK  167  A    between atoms: _426  and  _428
REMARK  168  A    between atoms: _428  and  _429
REMARK  169  A    between atoms: _428  and  _431
REMARK  170  A    between atoms: _431  and  _432
REMARK  171  A    between atoms: _435  and  _437
REMARK  172  A    between atoms: _437  and  _438
REMARK  173  A    between atoms: _437  and  _440
REMARK  174  A    between atoms: _440  and  _441
REMARK  175  A    between atoms: _446  and  _447
REMARK  176  A    between atoms: _449  and  _451
REMARK  177  A    between atoms: _451  and  _452
REMARK  178  A    between atoms: _451  and  _454
REMARK  179  A    between atoms: _457  and  _459
REMARK  180  A    between atoms: _459  and  _460
REMARK  181  A    between atoms: _459  and  _462
REMARK  182  A    between atoms: _462  and  _463
REMARK  183  A    between atoms: _469  and  _471
REMARK  184  A    between atoms: _471  and  _472
REMARK  185  A    between atoms: _471  and  _474
REMARK  186  A    between atoms: _474  and  _475
REMARK  187  A    between atoms: _475  and  _476
REMARK  188  A    between atoms: _481  and  _483
REMARK  189  A    between atoms: _483  and  _484
REMARK  190  A    between atoms: _483  and  _486
REMARK  191  A    between atoms: _486  and  _487
REMARK  192  A    between atoms: _489  and  _491
REMARK  193  A    between atoms: _491  and  _492
REMARK  194  A    between atoms: _491  and  _494
REMARK  195  A    between atoms: _494  and  _495
REMARK  196  A    between atoms: _500  and  _502
REMARK  197  A    between atoms: _502  and  _503
REMARK  198  A    between atoms: _502  and  _505
REMARK  199  A    between atoms: _505  and  _506
REMARK  200  A    between atoms: _516  and  _518
REMARK  201  A    between atoms: _518  and  _519
REMARK  202  A    between atoms: _518  and  _521
REMARK  203  A    between atoms: _521  and  _522
REMARK  204  A    between atoms: _525  and  _527
REMARK  205  A    between atoms: _527  and  _528
REMARK  206  A    between atoms: _527  and  _530
REMARK  207  A    between atoms: _530  and  _531
REMARK  208  A    between atoms: _536  and  _537
REMARK  209  A    between atoms: _539  and  _541
REMARK  210  A    between atoms: _541  and  _542
REMARK  211  A    between atoms: _541  and  _544
REMARK  212  A    between atoms: _544  and  _545
REMARK  213  A    between atoms: _548  and  _550
REMARK  214  A    between atoms: _550  and  _551
REMARK  215  A    between atoms: _550  and  _553
REMARK  216  A    between atoms: _553  and  _554
REMARK  217  A    between atoms: _554  and  _555
REMARK  218  A    between atoms: _558  and  _560
REMARK  219  A    between atoms: _560  and  _561
REMARK  220  A    between atoms: _560  and  _563
REMARK  221  A    between atoms: _563  and  _564
REMARK  222  A    between atoms: _569  and  _571
REMARK  223  A    between atoms: _571  and  _572
REMARK  224  A    between atoms: _574  and  _576
REMARK  225  A    between atoms: _576  and  _577
REMARK  226  A    between atoms: _576  and  _579
REMARK  227  A    between atoms: _579  and  _580
REMARK  228  A    between atoms: _580  and  _581
REMARK  229  A    between atoms: _583  and  _585
REMARK  230  A    between atoms: _585  and  _586
REMARK  231  A    between atoms: _585  and  _588
REMARK  232  A    between atoms: _588  and  _589
REMARK  233  A    between atoms: _592  and  _594
REMARK  234  A    between atoms: _594  and  _595
REMARK  235  A    between atoms: _594  and  _597
REMARK  236  A    between atoms: _597  and  _598
REMARK  237  A    between atoms: _608  and  _610
REMARK  238  A    between atoms: _610  and  _611
REMARK  239  A    between atoms: _610  and  _613
REMARK  240  A    between atoms: _613  and  _614
REMARK  241  A    between atoms: _616  and  _618
REMARK  242  A    between atoms: _618  and  _619
REMARK  243  A    between atoms: _618  and  _621
REMARK  244  A    between atoms: _621  and  _622
REMARK  245  A    between atoms: _627  and  _629
REMARK  246  A    between atoms: _629  and  _630
REMARK  247  A    between atoms: _629  and  _632
REMARK  248  A    between atoms: _632  and  _633
REMARK  249  A    between atoms: _639  and  _641
REMARK  250  A    between atoms: _641  and  _642
REMARK  251  A    between atoms: _641  and  _644
REMARK  252  A    between atoms: _644  and  _645
REMARK  253  A    between atoms: _645  and  _646
REMARK  254  A    between atoms: _649  and  _651
REMARK  255  A    between atoms: _651  and  _652
REMARK  256  A    between atoms: _651  and  _654
REMARK  257  A    between atoms: _654  and  _655
REMARK  258  A    between atoms: _665  and  _667
REMARK  259  A    between atoms: _667  and  _668
REMARK  260  A    between atoms: _667  and  _670
REMARK  261  A    between atoms: _670  and  _671
REMARK  262  A    between atoms: _674  and  _676
REMARK  263  A    between atoms: _676  and  _677
REMARK  264  A    between atoms: _676  and  _679
REMARK  265  A    between atoms: _679  and  _680
REMARK  266  A    between atoms: _682  and  _684
REMARK  267  A    between atoms: _684  and  _685
REMARK  268  A    between atoms: _684  and  _687
REMARK  269  A    between atoms: _687  and  _688
REMARK  270  A    between atoms: _690  and  _692
REMARK  271  A    between atoms: _692  and  _693
REMARK  272  A    between atoms: _692  and  _695
REMARK  273  A    between atoms: _695  and  _696
REMARK                            x       y       z     vdW  Elec       q    Type
REMARK                         _______ _______ _______ _____ _____    ______ ____
ROOT
ATOM      1  CA  SER A   1      -4.891   5.974  32.762  0.00  0.00    +0.163 C 
ENDROOT
BRANCH   1   2
ATOM      2  N   SER A   1      -5.926   5.187  32.053  0.00  0.00    -0.237 NA
ATOM      3  H   SER A   1      -5.627   4.411  31.428  0.00  0.00    +0.142 HD
ENDBRANCH   1   2
BRANCH   1   4
ATOM      4  C   SER A   1      -3.884   6.492  31.725  0.00  0.00    +0.227 C 
ATOM      5  O   SER A   1      -3.376   5.697  30.965  0.00  0.00    -0.287 OA
ENDBRANCH   1   4
BRANCH   1   6
ATOM      6  CB  SER A   1      -4.182   5.095  33.818  0.00  0.00    +0.162 C 
BRANCH   6   7
ATOM      7  OG  SER A   1      -2.917   5.644  34.192  0.00  0.00    -0.380 OA
ATOM      8  H   SER A   1      -3.051   6.547  34.574  0.00  0.00    +0.211 HD
ENDBRANCH   6   7
ENDBRANCH   1   6
TORSDOF 4
REMARK  Name = ../refined-set-2016/3f5j/3f5j_pocket.pdb
REMARK  273 active torsions:
REMARK  status: ('A' for Active; 'I' for Inactive)
REMARK    1  A    between atoms: _1  and  _3
REMARK    2  A    between atoms: _3  and  _4
REMARK    3  A    between atoms: _3  and  _6
REMARK    4  A    between atoms: _9  and  _11
REMARK    5  A    between atoms: _11  and  _12
REMARK    6  A    between atoms: _11  and  _14
REMARK    7  A    between atoms: _14  and  _15
REMARK    8  A    between atoms: _18  and  _20
REMARK    9  A    between atoms: _20  and  _21
REMARK   10  A    between atoms: _20  and  _23
REMARK   11  A    between atoms: _23  and  _24
REMARK   12  A    between atoms: _26  and  _28
REMARK   13  A    between atoms: _28  and  _29
REMARK   14  A    between atoms: _28  and  _31
REMARK   15  A    between atoms: _31  and  _32
REMARK   16  A    between atoms: _32  and  _33
REMARK   17  A    between atoms: _38  and  _40
REMARK   18  A    between atoms: _40  and  _41
REMARK   19  A    between atoms: _40  and  _43
REMARK   20  A    between atoms: _43  and  _44
REMARK   21  A    between atoms: _44  and  _45
REMARK   22  A    between atoms: _45  and  _46
REMARK   23  A    between atoms: _55  and  _57
REMARK   24  A    between atoms: _57  and  _58
REMARK   25  A    between atoms: _57  and  _60
REMARK   26  A    between atoms: _60  and  _61
REMARK   27  A    between atoms: _63  and  _65
REMARK   28  A    between atoms: _65  and  _66
REMARK   29  A    between atoms: _65  and  _68
REMARK   30  A    between atoms: _68  and  _69
REMARK   31  A    between atoms: _74  and  _76
REMARK   32  A    between atoms: _76  and  _77
REMARK   33  A    between atoms: _76  and  _79
REMARK   34  A    between atoms: _79  and  _80
REMARK   35  A    between atoms: _85  and  _87
REMARK   36  A    between atoms: _87  and  _88
REMARK   37  A    between atoms: _87  and  _90
REMARK   38  A    between atoms: _90  and  _91
REMARK   39  A    between atoms: _96  and  _97
REMARK   40  A    between atoms: _99  and  _101
REMARK   41  A    between atoms: _101  and  _102
REMARK   42  A    between atoms: _101  and  _104
REMARK   43  A    between atoms: _104  and  _105
REMARK   44  A    between atoms: _110  and  _112
REMARK   45  A    between atoms: _112  and  _113
REMARK   46  A    between atoms: _112  and  _115
REMARK   47  A    between atoms: _115  and  _116
REMARK   48  A    between atoms: _116  and  _117
REMARK   49  A    between atoms: _122  and  _124
REMARK   50  A    between atoms: _124  and  _125
REMARK   51  A    between atoms: _124  and  _127
REMARK   52  A    between atoms: _127  and  _128
REMARK   53  A    between atoms: _128  and  _129
REMARK   54  A    between atoms: _129  and  _130
REMARK   55  A    between atoms: _139  and  _141
REMARK   56  A    between atoms: _141  and  _142
REMARK   57  A    between atoms: _141  and  _144
REMARK   58  A    between atoms: _144  and  _145
REMARK   59  A    between atoms: _148  and  _150
REMARK   60  A    between atoms: _150  and  _151
REMARK   61  A    between atoms: _150  and  _153
REMARK   62  A    between atoms: _153  and  _154
REMARK   63  A    between atoms: _157  and  _159
REMARK   64  A    between atoms: _159  and  _160
REMARK   65  A    between atoms: _159  and  _162
REMARK   66  A    between atoms: _162  and  _163
REMARK   67  A    between atoms: _166  and  _168
REMARK   68  A    between atoms: _168  and  _169
REMARK   69  A    between atoms: _168  and  _171
REMARK   70  A    between atoms: _171  and  _172
REMARK   71  A    between atoms: _175  and  _177
REMARK   72  A    between atoms: _177  and  _178
REMARK   73  A    between atoms: _177  and  _180
REMARK   74  A    between atoms: _180  and  _181
REMARK   75  A    between atoms: _181  and  _182
REMARK   76  A    between atoms: _187  and  _189
REMARK   77  A    between atoms: _189  and  _190
REMARK   78  A    between atoms: _189  and  _192
REMARK   79  A    between atoms: _192  and  _193
REMARK   80  A    between atoms: _196  and  _198
REMARK   81  A    between atoms: _198  and  _199
REMARK   82  A    between atoms: _198  and  _201
REMARK   83  A    between atoms: _201  and  _202
REMARK   84  A    between atoms: _207  and  _209
REMARK   85  A    between atoms: _209  and  _210
REMARK   86  A    between atoms: _209  and  _212
REMARK   87  A    between atoms: _215  and  _217
REMARK   88  A    between atoms: _217  and  _218
REMARK   89  A    between atoms: _217  and  _220
REMARK   90  A    between atoms: _220  and  _221
REMARK   91  A    between atoms: _224  and  _226
REMARK   92  A    between atoms: _226  and  _227
REMARK   93  A    between atoms: _226  and  _229
REMARK   94  A    between atoms: _229  and  _230
REMARK   95  A    between atoms: _233  and  _235
REMARK   96  A    between atoms: _235  and  _236
REMARK   97  A    between atoms: _235  and  _238
REMARK   98  A    between atoms: _238  and  _239
REMARK   99  A    between atoms: _245  and  _247
REMARK  100  A    between atoms: _247  and  _248
REMARK  101  A    between atoms: _247  and  _250
REMARK  102  A    between atoms: _250  and  _251
REMARK  103  A    between atoms: _256  and  _258
REMARK  104  A    between atoms: _258  and  _259
REMARK  105  A    between atoms: _258  and  _261
REMARK  106  A    between atoms: _261  and  _262
REMARK  107  A    between atoms: _272  and  _274
REMARK  108  A    between atoms: _274  and  _275
REMARK  109  A    between atoms: _274  and  _277
REMARK  110  A    between atoms: _277  and  _278
REMARK  111  A    between atoms: _283  and  _284
REMARK  112  A    between atoms: _286  and  _288
REMARK  113  A    between atoms: _288  and  _289
REMARK  114  A    between atoms: _288  and  _291
REMARK  115  A    between atoms: _291  and  _292
REMARK  116  A    between atoms: _297  and  _299
REMARK  117  A    between atoms: _299  and  _300
REMARK  118  A    between atoms: _299  and  _302
REMARK  119  A    between atoms: _302  and  _303
REMARK  120  A    between atoms: _308  and  _310
REMARK  121  A    between atoms: _310  and  _311
REMARK  122  A    between atoms: _310  and  _313
REMARK  123  A    between atoms: _313  and  _314
REMARK  124  A    between atoms: _314  and  _315
REMARK  125  A    between atoms: _320  and  _322
REMARK  126  A    between atoms: _322  and  _323
REMARK  127  A    between atoms: _322  and  _325
REMARK  128  A    between atoms: _325  and  _326
REMARK  129  A    between atoms: _331  and  _332
REMARK  130  A    between atoms: _334  and  _336
REMARK  131  A    between atoms: _336  and  _337
REMARK  132  A    between atoms: _336  and  _339
REMARK  133  A    between atoms: _339  and  _340
REMARK  134  A    between atoms: _343  and  _345
REMARK  135  A    between atoms: _345  and  _346
REMARK  136  A    between atoms: _349  and  _351
REMARK  137  A    between atoms: _351  and  _352
REMARK  138  A    between atoms: _351  and  _354
REMARK  139  A    between atoms: _354  and  _355
REMARK  140  A    between atoms: _357  and  _359
REMARK  141  A    between atoms: _359  and  _360
REMARK  142  A    between atoms: _359  and  _362
REMARK  143  A    between atoms: _362  and  _363
REMARK  144  A    between atoms: _363  and  _364
REMARK  145  A    between atoms: _366  and  _368
REMARK  146  A    between atoms: _368  and  _369
REMARK  147  A    between atoms: _368  and  _371
REMARK  148  A    between atoms: _371  and  _372
REMARK  149  A    between atoms: _374  and  _376
REMARK  150  A    between atoms: _376  and  _377
REMARK  151  A    between atoms: _376  and  _379
REMARK  152  A    between atoms: _379  and  _380
REMARK  153  A    between atoms: _385  and  _386
REMARK  154  A    between atoms: _388  and  _390
REMARK  155  A    between atoms: _390  and  _391
REMARK  156  A    between atoms: _390  and  _393
REMARK  157  A    between atoms: _393  and  _394
REMARK  158  A    between atoms: _396  and  _398
REMARK  159  A    between atoms: _398  and  _399
REMARK  160  A    between atoms: _402  and  _404
REMARK  161  A    between atoms: _404  and  _405
REMARK  162  A    between atoms: _404  and  _407
REMARK  163  A    between atoms: _407  and  _408
REMARK  164  A    between atoms: _418  and  _420
REMARK  165  A    between atoms: _420  and  _421
REMARK  166  A    between atoms: _420  and  _423
REMARK  167  A    between atoms: _426  and  _428
REMARK  168  A    between atoms: _428  and  _429
REMARK  169  A    between atoms: _428  and  _431
REMARK  170  A    between atoms: _431  and  _432
REMARK  171  A    between atoms: _435  and  _437
REMARK  172  A    between atoms: _437  and  _438
REMARK  173  A    between atoms: _437  and  _440
REMARK  174  A    between atoms: _440  and  _441
REMARK  175  A    between atoms: _446  and  _447
REMARK  176  A    between atoms: _449  and  _451
REMARK  177  A    between atoms: _451  and  _452
REMARK  178  A    between atoms: _451  and  _454
REMARK  179  A    between atoms: _457  and  _459
REMARK  180  A    between atoms: _459  and  _460
REMARK  181  A    between atoms: _459  and  _462
REMARK  182  A    between atoms: _462  and  _463
REMARK  183  A    between atoms: _469  and  _471
REMARK  184  A    between atoms: _471  and  _472
REMARK  185  A    between atoms: _471  and  _474
REMARK  186  A    between atoms: _474  and  _475
REMARK  187  A    between atoms: _475  and  _476
REMARK  188  A    between atoms: _481  and  _483
REMARK  189  A    between atoms: _483  and  _484
REMARK  190  A    between atoms: _483  and  _486
REMARK  191  A    between atoms: _486  and  _487
REMARK  192  A    between atoms: _489  and  _491
REMARK  193  A    between atoms: _491  and  _492
REMARK  194  A    between atoms: _491  and  _494
REMARK  195  A    between atoms: _494  and  _495
REMARK  196  A    between atoms: _500  and  _502
REMARK  197  A    between atoms: _502  and  _503
REMARK  198  A    between atoms: _502  and  _505
REMARK  199  A    between atoms: _505  and  _506
REMARK  200  A    between atoms: _516  and  _518
REMARK  201  A    between atoms: _518  and  _519
REMARK  202  A    between atoms: _518  and  _521
REMARK  203  A    between atoms: _521  and  _522
REMARK  204  A    between atoms: _525  and  _527
REMARK  205  A    between atoms: _527  and  _528
REMARK  206  A    between atoms: _527  and  _530
REMARK  207  A    between atoms: _530  and  _531
REMARK  208  A    between atoms: _536  and  _537
REMARK  209  A    between atoms: _539  and  _541
REMARK  210  A    between atoms: _541  and  _542
REMARK  211  A    between atoms: _541  and  _544
REMARK  212  A    between atoms: _544  and  _545
REMARK  213  A    between atoms: _548  and  _550
REMARK  214  A    between atoms: _550  and  _551
REMARK  215  A    between atoms: _550  and  _553
REMARK  216  A    between atoms: _553  and  _554
REMARK  217  A    between atoms: _554  and  _555
REMARK  218  A    between atoms: _558  and  _560
REMARK  219  A    between atoms: _560  and  _561
REMARK  220  A    between atoms: _560  and  _563
REMARK  221  A    between atoms: _563  and  _564
REMARK  222  A    between atoms: _569  and  _571
REMARK  223  A    between atoms: _571  and  _572
REMARK  224  A    between atoms: _574  and  _576
REMARK  225  A    between atoms: _576  and  _577
REMARK  226  A    between atoms: _576  and  _579
REMARK  227  A    between atoms: _579  and  _580
REMARK  228  A    between atoms: _580  and  _581
REMARK  229  A    between atoms: _583  and  _585
REMARK  230  A    between atoms: _585  and  _586
REMARK  231  A    between atoms: _585  and  _588
REMARK  232  A    between atoms: _588  and  _589
REMARK  233  A    between atoms: _592  and  _594
REMARK  234  A    between atoms: _594  and  _595
REMARK  235  A    between atoms: _594  and  _597
REMARK  236  A    between atoms: _597  and  _598
REMARK  237  A    between atoms: _608  and  _610
REMARK  238  A    between atoms: _610  and  _611
REMARK  239  A    between atoms: _610  and  _613
REMARK  240  A    between atoms: _613  and  _614
REMARK  241  A    between atoms: _616  and  _618
REMARK  242  A    between atoms: _618  and  _619
REMARK  243  A    between atoms: _618  and  _621
REMARK  244  A    between atoms: _621  and  _622
REMARK  245  A    between atoms: _627  and  _629
REMARK  246  A    between atoms: _629  and  _630
REMARK  247  A    between atoms: _629  and  _632
REMARK  248  A    between atoms: _632  and  _633
REMARK  249  A    between atoms: _639  and  _641
REMARK  250  A    between atoms: _641  and  _642
REMARK  251  A    between atoms: _641  and  _644
REMARK  252  A    between atoms: _644  and  _645
REMARK  253  A    between atoms: _645  and  _646
REMARK  254  A    between atoms: _649  and  _651
REMARK  255  A    between atoms: _651  and  _652
REMARK  256  A    between atoms: _651  and  _654
REMARK  257  A    between atoms: _654  and  _655
REMARK  258  A    between atoms: _665  and  _667
REMARK  259  A    between atoms: _667  and  _668
REMARK  260  A    between atoms: _667  and  _670
REMARK  261  A    between atoms: _670  and  _671
REMARK  262  A    between atoms: _674  and  _676
REMARK  263  A    between atoms: _676  and  _677
REMARK  264  A    between atoms: _676  and  _679
REMARK  265  A    between atoms: _679  and  _680
REMARK  266  A    between atoms: _682  and  _684
REMARK  267  A    between atoms: _684  and  _685
REMARK  268  A    between atoms: _684  and  _687
REMARK  269  A    between atoms: _687  and  _688
REMARK  270  A    between atoms: _690  and  _692
REMARK  271  A    between atoms: _692  and  _693
REMARK  272  A    between atoms: _692  and  _695
REMARK  273  A    between atoms: _695  and  _696
REMARK                            x       y       z     vdW  Elec       q    Type
REMARK                         _______ _______ _______ _____ _____    ______ ____
ROOT
ATOM      1  CB  PHE A   1       1.618   7.509  32.227  0.00  0.00    +0.051 C 
ENDROOT
BRANCH   1   2
ATOM      2  CG  PHE A   1       1.347   7.115  33.649  0.00  0.00    -0.020 A 
ATOM      3  CD2 PHE A   1       2.003   7.748  34.704  0.00  0.00    -0.004 A 
ATOM      4  CE2 PHE A   1       1.761   7.389  36.052  0.00  0.00    -0.000 A 
ATOM      5  CZ  PHE A   1       0.838   6.366  36.352  0.00  0.00    -0.000 A 
ATOM      6  CE1 PHE A   1       0.163   5.724  35.293  0.00  0.00    -0.000 A 
ATOM      7  CD1 PHE A   1       0.435   6.109  33.934  0.00  0.00    -0.004 A 
ENDBRANCH   1   2
BRANCH   1   8
ATOM      8  CA  PHE A   1       0.827   8.765  31.747  0.00  0.00    +0.137 C 
BRANCH   8   9
ATOM      9  N   PHE A   1      -0.463   8.329  31.187  0.00  0.00    -0.239 NA
ATOM     10  H   PHE A   1      -0.502   7.422  30.680  0.00  0.00    +0.142 HD
ENDBRANCH   8   9
BRANCH   8  11
ATOM     11  C   PHE A   1       1.747   9.562  30.774  0.00  0.00    +0.224 C 
ATOM     12  O   PHE A   1       2.811  10.013  31.171  0.00  0.00    -0.287 OA
ENDBRANCH   8  11
ENDBRANCH   1   8
TORSDOF 4
REMARK  Name = ../refined-set-2016/3f5j/3f5j_pocket.pdb
REMARK  273 active torsions:
REMARK  status: ('A' for Active; 'I' for Inactive)
REMARK    1  A    between atoms: _1  and  _3
REMARK    2  A    between atoms: _3  and  _4
REMARK    3  A    between atoms: _3  and  _6
REMARK    4  A    between atoms: _9  and  _11
REMARK    5  A    between atoms: _11  and  _12
REMARK    6  A    between atoms: _11  and  _14
REMARK    7  A    between atoms: _14  and  _15
REMARK    8  A    between atoms: _18  and  _20
REMARK    9  A    between atoms: _20  and  _21
REMARK   10  A    between atoms: _20  and  _23
REMARK   11  A    between atoms: _23  and  _24
REMARK   12  A    between atoms: _26  and  _28
REMARK   13  A    between atoms: _28  and  _29
REMARK   14  A    between atoms: _28  and  _31
REMARK   15  A    between atoms: _31  and  _32
REMARK   16  A    between atoms: _32  and  _33
REMARK   17  A    between atoms: _38  and  _40
REMARK   18  A    between atoms: _40  and  _41
REMARK   19  A    between atoms: _40  and  _43
REMARK   20  A    between atoms: _43  and  _44
REMARK   21  A    between atoms: _44  and  _45
REMARK   22  A    between atoms: _45  and  _46
REMARK   23  A    between atoms: _55  and  _57
REMARK   24  A    between atoms: _57  and  _58
REMARK   25  A    between atoms: _57  and  _60
REMARK   26  A    between atoms: _60  and  _61
REMARK   27  A    between atoms: _63  and  _65
REMARK   28  A    between atoms: _65  and  _66
REMARK   29  A    between atoms: _65  and  _68
REMARK   30  A    between atoms: _68  and  _69
REMARK   31  A    between atoms: _74  and  _76
REMARK   32  A    between atoms: _76  and  _77
REMARK   33  A    between atoms: _76  and  _79
REMARK   34  A    between atoms: _79  and  _80
REMARK   35  A    between atoms: _85  and  _87
REMARK   36  A    between atoms: _87  and  _88
REMARK   37  A    between atoms: _87  and  _90
REMARK   38  A    between atoms: _90  and  _91
REMARK   39  A    between atoms: _96  and  _97
REMARK   40  A    between atoms: _99  and  _101
REMARK   41  A    between atoms: _101  and  _102
REMARK   42  A    between atoms: _101  and  _104
REMARK   43  A    between atoms: _104  and  _105
REMARK   44  A    between atoms: _110  and  _112
REMARK   45  A    between atoms: _112  and  _113
REMARK   46  A    between atoms: _112  and  _115
REMARK   47  A    between atoms: _115  and  _116
REMARK   48  A    between atoms: _116  and  _117
REMARK   49  A    between atoms: _122  and  _124
REMARK   50  A    between atoms: _124  and  _125
REMARK   51  A    between atoms: _124  and  _127
REMARK   52  A    between atoms: _127  and  _128
REMARK   53  A    between atoms: _128  and  _129
REMARK   54  A    between atoms: _129  and  _130
REMARK   55  A    between atoms: _139  and  _141
REMARK   56  A    between atoms: _141  and  _142
REMARK   57  A    between atoms: _141  and  _144
REMARK   58  A    between atoms: _144  and  _145
REMARK   59  A    between atoms: _148  and  _150
REMARK   60  A    between atoms: _150  and  _151
REMARK   61  A    between atoms: _150  and  _153
REMARK   62  A    between atoms: _153  and  _154
REMARK   63  A    between atoms: _157  and  _159
REMARK   64  A    between atoms: _159  and  _160
REMARK   65  A    between atoms: _159  and  _162
REMARK   66  A    between atoms: _162  and  _163
REMARK   67  A    between atoms: _166  and  _168
REMARK   68  A    between atoms: _168  and  _169
REMARK   69  A    between atoms: _168  and  _171
REMARK   70  A    between atoms: _171  and  _172
REMARK   71  A    between atoms: _175  and  _177
REMARK   72  A    between atoms: _177  and  _178
REMARK   73  A    between atoms: _177  and  _180
REMARK   74  A    between atoms: _180  and  _181
REMARK   75  A    between atoms: _181  and  _182
REMARK   76  A    between atoms: _187  and  _189
REMARK   77  A    between atoms: _189  and  _190
REMARK   78  A    between atoms: _189  and  _192
REMARK   79  A    between atoms: _192  and  _193
REMARK   80  A    between atoms: _196  and  _198
REMARK   81  A    between atoms: _198  and  _199
REMARK   82  A    between atoms: _198  and  _201
REMARK   83  A    between atoms: _201  and  _202
REMARK   84  A    between atoms: _207  and  _209
REMARK   85  A    between atoms: _209  and  _210
REMARK   86  A    between atoms: _209  and  _212
REMARK   87  A    between atoms: _215  and  _217
REMARK   88  A    between atoms: _217  and  _218
REMARK   89  A    between atoms: _217  and  _220
REMARK   90  A    between atoms: _220  and  _221
REMARK   91  A    between atoms: _224  and  _226
REMARK   92  A    between atoms: _226  and  _227
REMARK   93  A    between atoms: _226  and  _229
REMARK   94  A    between atoms: _229  and  _230
REMARK   95  A    between atoms: _233  and  _235
REMARK   96  A    between atoms: _235  and  _236
REMARK   97  A    between atoms: _235  and  _238
REMARK   98  A    between atoms: _238  and  _239
REMARK   99  A    between atoms: _245  and  _247
REMARK  100  A    between atoms: _247  and  _248
REMARK  101  A    between atoms: _247  and  _250
REMARK  102  A    between atoms: _250  and  _251
REMARK  103  A    between atoms: _256  and  _258
REMARK  104  A    between atoms: _258  and  _259
REMARK  105  A    between atoms: _258  and  _261
REMARK  106  A    between atoms: _261  and  _262
REMARK  107  A    between atoms: _272  and  _274
REMARK  108  A    between atoms: _274  and  _275
REMARK  109  A    between atoms: _274  and  _277
REMARK  110  A    between atoms: _277  and  _278
REMARK  111  A    between atoms: _283  and  _284
REMARK  112  A    between atoms: _286  and  _288
REMARK  113  A    between atoms: _288  and  _289
REMARK  114  A    between atoms: _288  and  _291
REMARK  115  A    between atoms: _291  and  _292
REMARK  116  A    between atoms: _297  and  _299
REMARK  117  A    between atoms: _299  and  _300
REMARK  118  A    between atoms: _299  and  _302
REMARK  119  A    between atoms: _302  and  _303
REMARK  120  A    between atoms: _308  and  _310
REMARK  121  A    between atoms: _310  and  _311
REMARK  122  A    between atoms: _310  and  _313
REMARK  123  A    between atoms: _313  and  _314
REMARK  124  A    between atoms: _314  and  _315
REMARK  125  A    between atoms: _320  and  _322
REMARK  126  A    between atoms: _322  and  _323
REMARK  127  A    between atoms: _322  and  _325
REMARK  128  A    between atoms: _325  and  _326
REMARK  129  A    between atoms: _331  and  _332
REMARK  130  A    between atoms: _334  and  _336
REMARK  131  A    between atoms: _336  and  _337
REMARK  132  A    between atoms: _336  and  _339
REMARK  133  A    between atoms: _339  and  _340
REMARK  134  A    between atoms: _343  and  _345
REMARK  135  A    between atoms: _345  and  _346
REMARK  136  A    between atoms: _349  and  _351
REMARK  137  A    between atoms: _351  and  _352
REMARK  138  A    between atoms: _351  and  _354
REMARK  139  A    between atoms: _354  and  _355
REMARK  140  A    between atoms: _357  and  _359
REMARK  141  A    between atoms: _359  and  _360
REMARK  142  A    between atoms: _359  and  _362
REMARK  143  A    between atoms: _362  and  _363
REMARK  144  A    between atoms: _363  and  _364
REMARK  145  A    between atoms: _366  and  _368
REMARK  146  A    between atoms: _368  and  _369
REMARK  147  A    between atoms: _368  and  _371
REMARK  148  A    between atoms: _371  and  _372
REMARK  149  A    between atoms: _374  and  _376
REMARK  150  A    between atoms: _376  and  _377
REMARK  151  A    between atoms: _376  and  _379
REMARK  152  A    between atoms: _379  and  _380
REMARK  153  A    between atoms: _385  and  _386
REMARK  154  A    between atoms: _388  and  _390
REMARK  155  A    between atoms: _390  and  _391
REMARK  156  A    between atoms: _390  and  _393
REMARK  157  A    between atoms: _393  and  _394
REMARK  158  A    between atoms: _396  and  _398
REMARK  159  A    between atoms: _398  and  _399
REMARK  160  A    between atoms: _402  and  _404
REMARK  161  A    between atoms: _404  and  _405
REMARK  162  A    between atoms: _404  and  _407
REMARK  163  A    between atoms: _407  and  _408
REMARK  164  A    between atoms: _418  and  _420
REMARK  165  A    between atoms: _420  and  _421
REMARK  166  A    between atoms: _420  and  _423
REMARK  167  A    between atoms: _426  and  _428
REMARK  168  A    between atoms: _428  and  _429
REMARK  169  A    between atoms: _428  and  _431
REMARK  170  A    between atoms: _431  and  _432
REMARK  171  A    between atoms: _435  and  _437
REMARK  172  A    between atoms: _437  and  _438
REMARK  173  A    between atoms: _437  and  _440
REMARK  174  A    between atoms: _440  and  _441
REMARK  175  A    between atoms: _446  and  _447
REMARK  176  A    between atoms: _449  and  _451
REMARK  177  A    between atoms: _451  and  _452
REMARK  178  A    between atoms: _451  and  _454
REMARK  179  A    between atoms: _457  and  _459
REMARK  180  A    between atoms: _459  and  _460
REMARK  181  A    between atoms: _459  and  _462
REMARK  182  A    between atoms: _462  and  _463
REMARK  183  A    between atoms: _469  and  _471
REMARK  184  A    between atoms: _471  and  _472
REMARK  185  A    between atoms: _471  and  _474
REMARK  186  A    between atoms: _474  and  _475
REMARK  187  A    between atoms: _475  and  _476
REMARK  188  A    between atoms: _481  and  _483
REMARK  189  A    between atoms: _483  and  _484
REMARK  190  A    between atoms: _483  and  _486
REMARK  191  A    between atoms: _486  and  _487
REMARK  192  A    between atoms: _489  and  _491
REMARK  193  A    between atoms: _491  and  _492
REMARK  194  A    between atoms: _491  and  _494
REMARK  195  A    between atoms: _494  and  _495
REMARK  196  A    between atoms: _500  and  _502
REMARK  197  A    between atoms: _502  and  _503
REMARK  198  A    between atoms: _502  and  _505
REMARK  199  A    between atoms: _505  and  _506
REMARK  200  A    between atoms: _516  and  _518
REMARK  201  A    between atoms: _518  and  _519
REMARK  202  A    between atoms: _518  and  _521
REMARK  203  A    between atoms: _521  and  _522
REMARK  204  A    between atoms: _525  and  _527
REMARK  205  A    between atoms: _527  and  _528
REMARK  206  A    between atoms: _527  and  _530
REMARK  207  A    between atoms: _530  and  _531
REMARK  208  A    between atoms: _536  and  _537
REMARK  209  A    between atoms: _539  and  _541
REMARK  210  A    between atoms: _541  and  _542
REMARK  211  A    between atoms: _541  and  _544
REMARK  212  A    between atoms: _544  and  _545
REMARK  213  A    between atoms: _548  and  _550
REMARK  214  A    between atoms: _550  and  _551
REMARK  215  A    between atoms: _550  and  _553
REMARK  216  A    between atoms: _553  and  _554
REMARK  217  A    between atoms: _554  and  _555
REMARK  218  A    between atoms: _558  and  _560
REMARK  219  A    between atoms: _560  and  _561
REMARK  220  A    between atoms: _560  and  _563
REMARK  221  A    between atoms: _563  and  _564
REMARK  222  A    between atoms: _569  and  _571
REMARK  223  A    between atoms: _571  and  _572
REMARK  224  A    between atoms: _574  and  _576
REMARK  225  A    between atoms: _576  and  _577
REMARK  226  A    between atoms: _576  and  _579
REMARK  227  A    between atoms: _579  and  _580
REMARK  228  A    between atoms: _580  and  _581
REMARK  229  A    between atoms: _583  and  _585
REMARK  230  A    between atoms: _585  and  _586
REMARK  231  A    between atoms: _585  and  _588
REMARK  232  A    between atoms: _588  and  _589
REMARK  233  A    between atoms: _592  and  _594
REMARK  234  A    between atoms: _594  and  _595
REMARK  235  A    between atoms: _594  and  _597
REMARK  236  A    between atoms: _597  and  _598
REMARK  237  A    between atoms: _608  and  _610
REMARK  238  A    between atoms: _610  and  _611
REMARK  239  A    between atoms: _610  and  _613
REMARK  240  A    between atoms: _613  and  _614
REMARK  241  A    between atoms: _616  and  _618
REMARK  242  A    between atoms: _618  and  _619
REMARK  243  A    between atoms: _618  and  _621
REMARK  244  A    between atoms: _621  and  _622
REMARK  245  A    between atoms: _627  and  _629
REMARK  246  A    between atoms: _629  and  _630
REMARK  247  A    between atoms: _629  and  _632
REMARK  248  A    between atoms: _632  and  _633
REMARK  249  A    between atoms: _639  and  _641
REMARK  250  A    between atoms: _641  and  _642
REMARK  251  A    between atoms: _641  and  _644
REMARK  252  A    between atoms: _644  and  _645
REMARK  253  A    between atoms: _645  and  _646
REMARK  254  A    between atoms: _649  and  _651
REMARK  255  A    between atoms: _651  and  _652
REMARK  256  A    between atoms: _651  and  _654
REMARK  257  A    between atoms: _654  and  _655
REMARK  258  A    between atoms: _665  and  _667
REMARK  259  A    between atoms: _667  and  _668
REMARK  260  A    between atoms: _667  and  _670
REMARK  261  A    between atoms: _670  and  _671
REMARK  262  A    between atoms: _674  and  _676
REMARK  263  A    between atoms: _676  and  _677
REMARK  264  A    between atoms: _676  and  _679
REMARK  265  A    between atoms: _679  and  _680
REMARK  266  A    between atoms: _682  and  _684
REMARK  267  A    between atoms: _684  and  _685
REMARK  268  A    between atoms: _684  and  _687
REMARK  269  A    between atoms: _687  and  _688
REMARK  270  A    between atoms: _690  and  _692
REMARK  271  A    between atoms: _692  and  _693
REMARK  272  A    between atoms: _692  and  _695
REMARK  273  A    between atoms: _695  and  _696
REMARK                            x       y       z     vdW  Elec       q    Type
REMARK                         _______ _______ _______ _____ _____    ______ ____
ROOT
ATOM      1  O   HOH     1      11.393  -3.646  42.617  0.00  0.00    +0.000 OA
ENDROOT
TORSDOF 0
REMARK  Name = ../refined-set-2016/3f5j/3f5j_pocket.pdb
REMARK  273 active torsions:
REMARK  status: ('A' for Active; 'I' for Inactive)
REMARK    1  A    between atoms: _1  and  _3
REMARK    2  A    between atoms: _3  and  _4
REMARK    3  A    between atoms: _3  and  _6
REMARK    4  A    between atoms: _9  and  _11
REMARK    5  A    between atoms: _11  and  _12
REMARK    6  A    between atoms: _11  and  _14
REMARK    7  A    between atoms: _14  and  _15
REMARK    8  A    between atoms: _18  and  _20
REMARK    9  A    between atoms: _20  and  _21
REMARK   10  A    between atoms: _20  and  _23
REMARK   11  A    between atoms: _23  and  _24
REMARK   12  A    between atoms: _26  and  _28
REMARK   13  A    between atoms: _28  and  _29
REMARK   14  A    between atoms: _28  and  _31
REMARK   15  A    between atoms: _31  and  _32
REMARK   16  A    between atoms: _32  and  _33
REMARK   17  A    between atoms: _38  and  _40
REMARK   18  A    between atoms: _40  and  _41
REMARK   19  A    between atoms: _40  and  _43
REMARK   20  A    between atoms: _43  and  _44
REMARK   21  A    between atoms: _44  and  _45
REMARK   22  A    between atoms: _45  and  _46
REMARK   23  A    between atoms: _55  and  _57
REMARK   24  A    between atoms: _57  and  _58
REMARK   25  A    between atoms: _57  and  _60
REMARK   26  A    between atoms: _60  and  _61
REMARK   27  A    between atoms: _63  and  _65
REMARK   28  A    between atoms: _65  and  _66
REMARK   29  A    between atoms: _65  and  _68
REMARK   30  A    between atoms: _68  and  _69
REMARK   31  A    between atoms: _74  and  _76
REMARK   32  A    between atoms: _76  and  _77
REMARK   33  A    between atoms: _76  and  _79
REMARK   34  A    between atoms: _79  and  _80
REMARK   35  A    between atoms: _85  and  _87
REMARK   36  A    between atoms: _87  and  _88
REMARK   37  A    between atoms: _87  and  _90
REMARK   38  A    between atoms: _90  and  _91
REMARK   39  A    between atoms: _96  and  _97
REMARK   40  A    between atoms: _99  and  _101
REMARK   41  A    between atoms: _101  and  _102
REMARK   42  A    between atoms: _101  and  _104
REMARK   43  A    between atoms: _104  and  _105
REMARK   44  A    between atoms: _110  and  _112
REMARK   45  A    between atoms: _112  and  _113
REMARK   46  A    between atoms: _112  and  _115
REMARK   47  A    between atoms: _115  and  _116
REMARK   48  A    between atoms: _116  and  _117
REMARK   49  A    between atoms: _122  and  _124
REMARK   50  A    between atoms: _124  and  _125
REMARK   51  A    between atoms: _124  and  _127
REMARK   52  A    between atoms: _127  and  _128
REMARK   53  A    between atoms: _128  and  _129
REMARK   54  A    between atoms: _129  and  _130
REMARK   55  A    between atoms: _139  and  _141
REMARK   56  A    between atoms: _141  and  _142
REMARK   57  A    between atoms: _141  and  _144
REMARK   58  A    between atoms: _144  and  _145
REMARK   59  A    between atoms: _148  and  _150
REMARK   60  A    between atoms: _150  and  _151
REMARK   61  A    between atoms: _150  and  _153
REMARK   62  A    between atoms: _153  and  _154
REMARK   63  A    between atoms: _157  and  _159
REMARK   64  A    between atoms: _159  and  _160
REMARK   65  A    between atoms: _159  and  _162
REMARK   66  A    between atoms: _162  and  _163
REMARK   67  A    between atoms: _166  and  _168
REMARK   68  A    between atoms: _168  and  _169
REMARK   69  A    between atoms: _168  and  _171
REMARK   70  A    between atoms: _171  and  _172
REMARK   71  A    between atoms: _175  and  _177
REMARK   72  A    between atoms: _177  and  _178
REMARK   73  A    between atoms: _177  and  _180
REMARK   74  A    between atoms: _180  and  _181
REMARK   75  A    between atoms: _181  and  _182
REMARK   76  A    between atoms: _187  and  _189
REMARK   77  A    between atoms: _189  and  _190
REMARK   78  A    between atoms: _189  and  _192
REMARK   79  A    between atoms: _192  and  _193
REMARK   80  A    between atoms: _196  and  _198
REMARK   81  A    between atoms: _198  and  _199
REMARK   82  A    between atoms: _198  and  _201
REMARK   83  A    between atoms: _201  and  _202
REMARK   84  A    between atoms: _207  and  _209
REMARK   85  A    between atoms: _209  and  _210
REMARK   86  A    between atoms: _209  and  _212
REMARK   87  A    between atoms: _215  and  _217
REMARK   88  A    between atoms: _217  and  _218
REMARK   89  A    between atoms: _217  and  _220
REMARK   90  A    between atoms: _220  and  _221
REMARK   91  A    between atoms: _224  and  _226
REMARK   92  A    between atoms: _226  and  _227
REMARK   93  A    between atoms: _226  and  _229
REMARK   94  A    between atoms: _229  and  _230
REMARK   95  A    between atoms: _233  and  _235
REMARK   96  A    between atoms: _235  and  _236
REMARK   97  A    between atoms: _235  and  _238
REMARK   98  A    between atoms: _238  and  _239
REMARK   99  A    between atoms: _245  and  _247
REMARK  100  A    between atoms: _247  and  _248
REMARK  101  A    between atoms: _247  and  _250
REMARK  102  A    between atoms: _250  and  _251
REMARK  103  A    between atoms: _256  and  _258
REMARK  104  A    between atoms: _258  and  _259
REMARK  105  A    between atoms: _258  and  _261
REMARK  106  A    between atoms: _261  and  _262
REMARK  107  A    between atoms: _272  and  _274
REMARK  108  A    between atoms: _274  and  _275
REMARK  109  A    between atoms: _274  and  _277
REMARK  110  A    between atoms: _277  and  _278
REMARK  111  A    between atoms: _283  and  _284
REMARK  112  A    between atoms: _286  and  _288
REMARK  113  A    between atoms: _288  and  _289
REMARK  114  A    between atoms: _288  and  _291
REMARK  115  A    between atoms: _291  and  _292
REMARK  116  A    between atoms: _297  and  _299
REMARK  117  A    between atoms: _299  and  _300
REMARK  118  A    between atoms: _299  and  _302
REMARK  119  A    between atoms: _302  and  _303
REMARK  120  A    between atoms: _308  and  _310
REMARK  121  A    between atoms: _310  and  _311
REMARK  122  A    between atoms: _310  and  _313
REMARK  123  A    between atoms: _313  and  _314
REMARK  124  A    between atoms: _314  and  _315
REMARK  125  A    between atoms: _320  and  _322
REMARK  126  A    between atoms: _322  and  _323
REMARK  127  A    between atoms: _322  and  _325
REMARK  128  A    between atoms: _325  and  _326
REMARK  129  A    between atoms: _331  and  _332
REMARK  130  A    between atoms: _334  and  _336
REMARK  131  A    between atoms: _336  and  _337
REMARK  132  A    between atoms: _336  and  _339
REMARK  133  A    between atoms: _339  and  _340
REMARK  134  A    between atoms: _343  and  _345
REMARK  135  A    between atoms: _345  and  _346
REMARK  136  A    between atoms: _349  and  _351
REMARK  137  A    between atoms: _351  and  _352
REMARK  138  A    between atoms: _351  and  _354
REMARK  139  A    between atoms: _354  and  _355
REMARK  140  A    between atoms: _357  and  _359
REMARK  141  A    between atoms: _359  and  _360
REMARK  142  A    between atoms: _359  and  _362
REMARK  143  A    between atoms: _362  and  _363
REMARK  144  A    between atoms: _363  and  _364
REMARK  145  A    between atoms: _366  and  _368
REMARK  146  A    between atoms: _368  and  _369
REMARK  147  A    between atoms: _368  and  _371
REMARK  148  A    between atoms: _371  and  _372
REMARK  149  A    between atoms: _374  and  _376
REMARK  150  A    between atoms: _376  and  _377
REMARK  151  A    between atoms: _376  and  _379
REMARK  152  A    between atoms: _379  and  _380
REMARK  153  A    between atoms: _385  and  _386
REMARK  154  A    between atoms: _388  and  _390
REMARK  155  A    between atoms: _390  and  _391
REMARK  156  A    between atoms: _390  and  _393
REMARK  157  A    between atoms: _393  and  _394
REMARK  158  A    between atoms: _396  and  _398
REMARK  159  A    between atoms: _398  and  _399
REMARK  160  A    between atoms: _402  and  _404
REMARK  161  A    between atoms: _404  and  _405
REMARK  162  A    between atoms: _404  and  _407
REMARK  163  A    between atoms: _407  and  _408
REMARK  164  A    between atoms: _418  and  _420
REMARK  165  A    between atoms: _420  and  _421
REMARK  166  A    between atoms: _420  and  _423
REMARK  167  A    between atoms: _426  and  _428
REMARK  168  A    between atoms: _428  and  _429
REMARK  169  A    between atoms: _428  and  _431
REMARK  170  A    between atoms: _431  and  _432
REMARK  171  A    between atoms: _435  and  _437
REMARK  172  A    between atoms: _437  and  _438
REMARK  173  A    between atoms: _437  and  _440
REMARK  174  A    between atoms: _440  and  _441
REMARK  175  A    between atoms: _446  and  _447
REMARK  176  A    between atoms: _449  and  _451
REMARK  177  A    between atoms: _451  and  _452
REMARK  178  A    between atoms: _451  and  _454
REMARK  179  A    between atoms: _457  and  _459
REMARK  180  A    between atoms: _459  and  _460
REMARK  181  A    between atoms: _459  and  _462
REMARK  182  A    between atoms: _462  and  _463
REMARK  183  A    between atoms: _469  and  _471
REMARK  184  A    between atoms: _471  and  _472
REMARK  185  A    between atoms: _471  and  _474
REMARK  186  A    between atoms: _474  and  _475
REMARK  187  A    between atoms: _475  and  _476
REMARK  188  A    between atoms: _481  and  _483
REMARK  189  A    between atoms: _483  and  _484
REMARK  190  A    between atoms: _483  and  _486
REMARK  191  A    between atoms: _486  and  _487
REMARK  192  A    between atoms: _489  and  _491
REMARK  193  A    between atoms: _491  and  _492
REMARK  194  A    between atoms: _491  and  _494
REMARK  195  A    between atoms: _494  and  _495
REMARK  196  A    between atoms: _500  and  _502
REMARK  197  A    between atoms: _502  and  _503
REMARK  198  A    between atoms: _502  and  _505
REMARK  199  A    between atoms: _505  and  _506
REMARK  200  A    between atoms: _516  and  _518
REMARK  201  A    between atoms: _518  and  _519
REMARK  202  A    between atoms: _518  and  _521
REMARK  203  A    between atoms: _521  and  _522
REMARK  204  A    between atoms: _525  and  _527
REMARK  205  A    between atoms: _527  and  _528
REMARK  206  A    between atoms: _527  and  _530
REMARK  207  A    between atoms: _530  and  _531
REMARK  208  A    between atoms: _536  and  _537
REMARK  209  A    between atoms: _539  and  _541
REMARK  210  A    between atoms: _541  and  _542
REMARK  211  A    between atoms: _541  and  _544
REMARK  212  A    between atoms: _544  and  _545
REMARK  213  A    between atoms: _548  and  _550
REMARK  214  A    between atoms: _550  and  _551
REMARK  215  A    between atoms: _550  and  _553
REMARK  216  A    between atoms: _553  and  _554
REMARK  217  A    between atoms: _554  and  _555
REMARK  218  A    between atoms: _558  and  _560
REMARK  219  A    between atoms: _560  and  _561
REMARK  220  A    between atoms: _560  and  _563
REMARK  221  A    between atoms: _563  and  _564
REMARK  222  A    between atoms: _569  and  _571
REMARK  223  A    between atoms: _571  and  _572
REMARK  224  A    between atoms: _574  and  _576
REMARK  225  A    between atoms: _576  and  _577
REMARK  226  A    between atoms: _576  and  _579
REMARK  227  A    between atoms: _579  and  _580
REMARK  228  A    between atoms: _580  and  _581
REMARK  229  A    between atoms: _583  and  _585
REMARK  230  A    between atoms: _585  and  _586
REMARK  231  A    between atoms: _585  and  _588
REMARK  232  A    between atoms: _588  and  _589
REMARK  233  A    between atoms: _592  and  _594
REMARK  234  A    between atoms: _594  and  _595
REMARK  235  A    between atoms: _594  and  _597
REMARK  236  A    between atoms: _597  and  _598
REMARK  237  A    between atoms: _608  and  _610
REMARK  238  A    between atoms: _610  and  _611
REMARK  239  A    between atoms: _610  and  _613
REMARK  240  A    between atoms: _613  and  _614
REMARK  241  A    between atoms: _616  and  _618
REMARK  242  A    between atoms: _618  and  _619
REMARK  243  A    between atoms: _618  and  _621
REMARK  244  A    between atoms: _621  and  _622
REMARK  245  A    between atoms: _627  and  _629
REMARK  246  A    between atoms: _629  and  _630
REMARK  247  A    between atoms: _629  and  _632
REMARK  248  A    between atoms: _632  and  _633
REMARK  249  A    between atoms: _639  and  _641
REMARK  250  A    between atoms: _641  and  _642
REMARK  251  A    between atoms: _641  and  _644
REMARK  252  A    between atoms: _644  and  _645
REMARK  253  A    between atoms: _645  and  _646
REMARK  254  A    between atoms: _649  and  _651
REMARK  255  A    between atoms: _651  and  _652
REMARK  256  A    between atoms: _651  and  _654
REMARK  257  A    between atoms: _654  and  _655
REMARK  258  A    between atoms: _665  and  _667
REMARK  259  A    between atoms: _667  and  _668
REMARK  260  A    between atoms: _667  and  _670
REMARK  261  A    between atoms: _670  and  _671
REMARK  262  A    between atoms: _674  and  _676
REMARK  263  A    between atoms: _676  and  _677
REMARK  264  A    between atoms: _676  and  _679
REMARK  265  A    between atoms: _679  and  _680
REMARK  266  A    between atoms: _682  and  _684
REMARK  267  A    between atoms: _684  and  _685
REMARK  268  A    between atoms: _684  and  _687
REMARK  269  A    between atoms: _687  and  _688
REMARK  270  A    between atoms: _690  and  _692
REMARK  271  A    between atoms: _692  and  _693
REMARK  272  A    between atoms: _692  and  _695
REMARK  273  A    between atoms: _695  and  _696
REMARK                            x       y       z     vdW  Elec       q    Type
REMARK                         _______ _______ _______ _____ _____    ______ ____
ROOT
ATOM      1  O   HOH     1       3.621  -2.329  49.042  0.00  0.00    +0.000 OA
ENDROOT
TORSDOF 0
REMARK  Name = ../refined-set-2016/3f5j/3f5j_pocket.pdb
REMARK  273 active torsions:
REMARK  status: ('A' for Active; 'I' for Inactive)
REMARK    1  A    between atoms: _1  and  _3
REMARK    2  A    between atoms: _3  and  _4
REMARK    3  A    between atoms: _3  and  _6
REMARK    4  A    between atoms: _9  and  _11
REMARK    5  A    between atoms: _11  and  _12
REMARK    6  A    between atoms: _11  and  _14
REMARK    7  A    between atoms: _14  and  _15
REMARK    8  A    between atoms: _18  and  _20
REMARK    9  A    between atoms: _20  and  _21
REMARK   10  A    between atoms: _20  and  _23
REMARK   11  A    between atoms: _23  and  _24
REMARK   12  A    between atoms: _26  and  _28
REMARK   13  A    between atoms: _28  and  _29
REMARK   14  A    between atoms: _28  and  _31
REMARK   15  A    between atoms: _31  and  _32
REMARK   16  A    between atoms: _32  and  _33
REMARK   17  A    between atoms: _38  and  _40
REMARK   18  A    between atoms: _40  and  _41
REMARK   19  A    between atoms: _40  and  _43
REMARK   20  A    between atoms: _43  and  _44
REMARK   21  A    between atoms: _44  and  _45
REMARK   22  A    between atoms: _45  and  _46
REMARK   23  A    between atoms: _55  and  _57
REMARK   24  A    between atoms: _57  and  _58
REMARK   25  A    between atoms: _57  and  _60
REMARK   26  A    between atoms: _60  and  _61
REMARK   27  A    between atoms: _63  and  _65
REMARK   28  A    between atoms: _65  and  _66
REMARK   29  A    between atoms: _65  and  _68
REMARK   30  A    between atoms: _68  and  _69
REMARK   31  A    between atoms: _74  and  _76
REMARK   32  A    between atoms: _76  and  _77
REMARK   33  A    between atoms: _76  and  _79
REMARK   34  A    between atoms: _79  and  _80
REMARK   35  A    between atoms: _85  and  _87
REMARK   36  A    between atoms: _87  and  _88
REMARK   37  A    between atoms: _87  and  _90
REMARK   38  A    between atoms: _90  and  _91
REMARK   39  A    between atoms: _96  and  _97
REMARK   40  A    between atoms: _99  and  _101
REMARK   41  A    between atoms: _101  and  _102
REMARK   42  A    between atoms: _101  and  _104
REMARK   43  A    between atoms: _104  and  _105
REMARK   44  A    between atoms: _110  and  _112
REMARK   45  A    between atoms: _112  and  _113
REMARK   46  A    between atoms: _112  and  _115
REMARK   47  A    between atoms: _115  and  _116
REMARK   48  A    between atoms: _116  and  _117
REMARK   49  A    between atoms: _122  and  _124
REMARK   50  A    between atoms: _124  and  _125
REMARK   51  A    between atoms: _124  and  _127
REMARK   52  A    between atoms: _127  and  _128
REMARK   53  A    between atoms: _128  and  _129
REMARK   54  A    between atoms: _129  and  _130
REMARK   55  A    between atoms: _139  and  _141
REMARK   56  A    between atoms: _141  and  _142
REMARK   57  A    between atoms: _141  and  _144
REMARK   58  A    between atoms: _144  and  _145
REMARK   59  A    between atoms: _148  and  _150
REMARK   60  A    between atoms: _150  and  _151
REMARK   61  A    between atoms: _150  and  _153
REMARK   62  A    between atoms: _153  and  _154
REMARK   63  A    between atoms: _157  and  _159
REMARK   64  A    between atoms: _159  and  _160
REMARK   65  A    between atoms: _159  and  _162
REMARK   66  A    between atoms: _162  and  _163
REMARK   67  A    between atoms: _166  and  _168
REMARK   68  A    between atoms: _168  and  _169
REMARK   69  A    between atoms: _168  and  _171
REMARK   70  A    between atoms: _171  and  _172
REMARK   71  A    between atoms: _175  and  _177
REMARK   72  A    between atoms: _177  and  _178
REMARK   73  A    between atoms: _177  and  _180
REMARK   74  A    between atoms: _180  and  _181
REMARK   75  A    between atoms: _181  and  _182
REMARK   76  A    between atoms: _187  and  _189
REMARK   77  A    between atoms: _189  and  _190
REMARK   78  A    between atoms: _189  and  _192
REMARK   79  A    between atoms: _192  and  _193
REMARK   80  A    between atoms: _196  and  _198
REMARK   81  A    between atoms: _198  and  _199
REMARK   82  A    between atoms: _198  and  _201
REMARK   83  A    between atoms: _201  and  _202
REMARK   84  A    between atoms: _207  and  _209
REMARK   85  A    between atoms: _209  and  _210
REMARK   86  A    between atoms: _209  and  _212
REMARK   87  A    between atoms: _215  and  _217
REMARK   88  A    between atoms: _217  and  _218
REMARK   89  A    between atoms: _217  and  _220
REMARK   90  A    between atoms: _220  and  _221
REMARK   91  A    between atoms: _224  and  _226
REMARK   92  A    between atoms: _226  and  _227
REMARK   93  A    between atoms: _226  and  _229
REMARK   94  A    between atoms: _229  and  _230
REMARK   95  A    between atoms: _233  and  _235
REMARK   96  A    between atoms: _235  and  _236
REMARK   97  A    between atoms: _235  and  _238
REMARK   98  A    between atoms: _238  and  _239
REMARK   99  A    between atoms: _245  and  _247
REMARK  100  A    between atoms: _247  and  _248
REMARK  101  A    between atoms: _247  and  _250
REMARK  102  A    between atoms: _250  and  _251
REMARK  103  A    between atoms: _256  and  _258
REMARK  104  A    between atoms: _258  and  _259
REMARK  105  A    between atoms: _258  and  _261
REMARK  106  A    between atoms: _261  and  _262
REMARK  107  A    between atoms: _272  and  _274
REMARK  108  A    between atoms: _274  and  _275
REMARK  109  A    between atoms: _274  and  _277
REMARK  110  A    between atoms: _277  and  _278
REMARK  111  A    between atoms: _283  and  _284
REMARK  112  A    between atoms: _286  and  _288
REMARK  113  A    between atoms: _288  and  _289
REMARK  114  A    between atoms: _288  and  _291
REMARK  115  A    between atoms: _291  and  _292
REMARK  116  A    between atoms: _297  and  _299
REMARK  117  A    between atoms: _299  and  _300
REMARK  118  A    between atoms: _299  and  _302
REMARK  119  A    between atoms: _302  and  _303
REMARK  120  A    between atoms: _308  and  _310
REMARK  121  A    between atoms: _310  and  _311
REMARK  122  A    between atoms: _310  and  _313
REMARK  123  A    between atoms: _313  and  _314
REMARK  124  A    between atoms: _314  and  _315
REMARK  125  A    between atoms: _320  and  _322
REMARK  126  A    between atoms: _322  and  _323
REMARK  127  A    between atoms: _322  and  _325
REMARK  128  A    between atoms: _325  and  _326
REMARK  129  A    between atoms: _331  and  _332
REMARK  130  A    between atoms: _334  and  _336
REMARK  131  A    between atoms: _336  and  _337
REMARK  132  A    between atoms: _336  and  _339
REMARK  133  A    between atoms: _339  and  _340
REMARK  134  A    between atoms: _343  and  _345
REMARK  135  A    between atoms: _345  and  _346
REMARK  136  A    between atoms: _349  and  _351
REMARK  137  A    between atoms: _351  and  _352
REMARK  138  A    between atoms: _351  and  _354
REMARK  139  A    between atoms: _354  and  _355
REMARK  140  A    between atoms: _357  and  _359
REMARK  141  A    between atoms: _359  and  _360
REMARK  142  A    between atoms: _359  and  _362
REMARK  143  A    between atoms: _362  and  _363
REMARK  144  A    between atoms: _363  and  _364
REMARK  145  A    between atoms: _366  and  _368
REMARK  146  A    between atoms: _368  and  _369
REMARK  147  A    between atoms: _368  and  _371
REMARK  148  A    between atoms: _371  and  _372
REMARK  149  A    between atoms: _374  and  _376
REMARK  150  A    between atoms: _376  and  _377
REMARK  151  A    between atoms: _376  and  _379
REMARK  152  A    between atoms: _379  and  _380
REMARK  153  A    between atoms: _385  and  _386
REMARK  154  A    between atoms: _388  and  _390
REMARK  155  A    between atoms: _390  and  _391
REMARK  156  A    between atoms: _390  and  _393
REMARK  157  A    between atoms: _393  and  _394
REMARK  158  A    between atoms: _396  and  _398
REMARK  159  A    between atoms: _398  and  _399
REMARK  160  A    between atoms: _402  and  _404
REMARK  161  A    between atoms: _404  and  _405
REMARK  162  A    between atoms: _404  and  _407
REMARK  163  A    between atoms: _407  and  _408
REMARK  164  A    between atoms: _418  and  _420
REMARK  165  A    between atoms: _420  and  _421
REMARK  166  A    between atoms: _420  and  _423
REMARK  167  A    between atoms: _426  and  _428
REMARK  168  A    between atoms: _428  and  _429
REMARK  169  A    between atoms: _428  and  _431
REMARK  170  A    between atoms: _431  and  _432
REMARK  171  A    between atoms: _435  and  _437
REMARK  172  A    between atoms: _437  and  _438
REMARK  173  A    between atoms: _437  and  _440
REMARK  174  A    between atoms: _440  and  _441
REMARK  175  A    between atoms: _446  and  _447
REMARK  176  A    between atoms: _449  and  _451
REMARK  177  A    between atoms: _451  and  _452
REMARK  178  A    between atoms: _451  and  _454
REMARK  179  A    between atoms: _457  and  _459
REMARK  180  A    between atoms: _459  and  _460
REMARK  181  A    between atoms: _459  and  _462
REMARK  182  A    between atoms: _462  and  _463
REMARK  183  A    between atoms: _469  and  _471
REMARK  184  A    between atoms: _471  and  _472
REMARK  185  A    between atoms: _471  and  _474
REMARK  186  A    between atoms: _474  and  _475
REMARK  187  A    between atoms: _475  and  _476
REMARK  188  A    between atoms: _481  and  _483
REMARK  189  A    between atoms: _483  and  _484
REMARK  190  A    between atoms: _483  and  _486
REMARK  191  A    between atoms: _486  and  _487
REMARK  192  A    between atoms: _489  and  _491
REMARK  193  A    between atoms: _491  and  _492
REMARK  194  A    between atoms: _491  and  _494
REMARK  195  A    between atoms: _494  and  _495
REMARK  196  A    between atoms: _500  and  _502
REMARK  197  A    between atoms: _502  and  _503
REMARK  198  A    between atoms: _502  and  _505
REMARK  199  A    between atoms: _505  and  _506
REMARK  200  A    between atoms: _516  and  _518
REMARK  201  A    between atoms: _518  and  _519
REMARK  202  A    between atoms: _518  and  _521
REMARK  203  A    between atoms: _521  and  _522
REMARK  204  A    between atoms: _525  and  _527
REMARK  205  A    between atoms: _527  and  _528
REMARK  206  A    between atoms: _527  and  _530
REMARK  207  A    between atoms: _530  and  _531
REMARK  208  A    between atoms: _536  and  _537
REMARK  209  A    between atoms: _539  and  _541
REMARK  210  A    between atoms: _541  and  _542
REMARK  211  A    between atoms: _541  and  _544
REMARK  212  A    between atoms: _544  and  _545
REMARK  213  A    between atoms: _548  and  _550
REMARK  214  A    between atoms: _550  and  _551
REMARK  215  A    between atoms: _550  and  _553
REMARK  216  A    between atoms: _553  and  _554
REMARK  217  A    between atoms: _554  and  _555
REMARK  218  A    between atoms: _558  and  _560
REMARK  219  A    between atoms: _560  and  _561
REMARK  220  A    between atoms: _560  and  _563
REMARK  221  A    between atoms: _563  and  _564
REMARK  222  A    between atoms: _569  and  _571
REMARK  223  A    between atoms: _571  and  _572
REMARK  224  A    between atoms: _574  and  _576
REMARK  225  A    between atoms: _576  and  _577
REMARK  226  A    between atoms: _576  and  _579
REMARK  227  A    between atoms: _579  and  _580
REMARK  228  A    between atoms: _580  and  _581
REMARK  229  A    between atoms: _583  and  _585
REMARK  230  A    between atoms: _585  and  _586
REMARK  231  A    between atoms: _585  and  _588
REMARK  232  A    between atoms: _588  and  _589
REMARK  233  A    between atoms: _592  and  _594
REMARK  234  A    between atoms: _594  and  _595
REMARK  235  A    between atoms: _594  and  _597
REMARK  236  A    between atoms: _597  and  _598
REMARK  237  A    between atoms: _608  and  _610
REMARK  238  A    between atoms: _610  and  _611
REMARK  239  A    between atoms: _610  and  _613
REMARK  240  A    between atoms: _613  and  _614
REMARK  241  A    between atoms: _616  and  _618
REMARK  242  A    between atoms: _618  and  _619
REMARK  243  A    between atoms: _618  and  _621
REMARK  244  A    between atoms: _621  and  _622
REMARK  245  A    between atoms: _627  and  _629
REMARK  246  A    between atoms: _629  and  _630
REMARK  247  A    between atoms: _629  and  _632
REMARK  248  A    between atoms: _632  and  _633
REMARK  249  A    between atoms: _639  and  _641
REMARK  250  A    between atoms: _641  and  _642
REMARK  251  A    between atoms: _641  and  _644
REMARK  252  A    between atoms: _644  and  _645
REMARK  253  A    between atoms: _645  and  _646
REMARK  254  A    between atoms: _649  and  _651
REMARK  255  A    between atoms: _651  and  _652
REMARK  256  A    between atoms: _651  and  _654
REMARK  257  A    between atoms: _654  and  _655
REMARK  258  A    between atoms: _665  and  _667
REMARK  259  A    between atoms: _667  and  _668
REMARK  260  A    between atoms: _667  and  _670
REMARK  261  A    between atoms: _670  and  _671
REMARK  262  A    between atoms: _674  and  _676
REMARK  263  A    between atoms: _676  and  _677
REMARK  264  A    between atoms: _676  and  _679
REMARK  265  A    between atoms: _679  and  _680
REMARK  266  A    between atoms: _682  and  _684
REMARK  267  A    between atoms: _684  and  _685
REMARK  268  A    between atoms: _684  and  _687
REMARK  269  A    between atoms: _687  and  _688
REMARK  270  A    between atoms: _690  and  _692
REMARK  271  A    between atoms: _692  and  _693
REMARK  272  A    between atoms: _692  and  _695
REMARK  273  A    between atoms: _695  and  _696
REMARK                            x       y       z     vdW  Elec       q    Type
REMARK                         _______ _______ _______ _____ _____    ______ ____
ROOT
ATOM      1  O   HOH     1       6.014  -4.804  28.841  0.00  0.00    +0.000 OA
ENDROOT
TORSDOF 0
REMARK  Name = ../refined-set-2016/3f5j/3f5j_pocket.pdb
REMARK  273 active torsions:
REMARK  status: ('A' for Active; 'I' for Inactive)
REMARK    1  A    between atoms: _1  and  _3
REMARK    2  A    between atoms: _3  and  _4
REMARK    3  A    between atoms: _3  and  _6
REMARK    4  A    between atoms: _9  and  _11
REMARK    5  A    between atoms: _11  and  _12
REMARK    6  A    between atoms: _11  and  _14
REMARK    7  A    between atoms: _14  and  _15
REMARK    8  A    between atoms: _18  and  _20
REMARK    9  A    between atoms: _20  and  _21
REMARK   10  A    between atoms: _20  and  _23
REMARK   11  A    between atoms: _23  and  _24
REMARK   12  A    between atoms: _26  and  _28
REMARK   13  A    between atoms: _28  and  _29
REMARK   14  A    between atoms: _28  and  _31
REMARK   15  A    between atoms: _31  and  _32
REMARK   16  A    between atoms: _32  and  _33
REMARK   17  A    between atoms: _38  and  _40
REMARK   18  A    between atoms: _40  and  _41
REMARK   19  A    between atoms: _40  and  _43
REMARK   20  A    between atoms: _43  and  _44
REMARK   21  A    between atoms: _44  and  _45
REMARK   22  A    between atoms: _45  and  _46
REMARK   23  A    between atoms: _55  and  _57
REMARK   24  A    between atoms: _57  and  _58
REMARK   25  A    between atoms: _57  and  _60
REMARK   26  A    between atoms: _60  and  _61
REMARK   27  A    between atoms: _63  and  _65
REMARK   28  A    between atoms: _65  and  _66
REMARK   29  A    between atoms: _65  and  _68
REMARK   30  A    between atoms: _68  and  _69
REMARK   31  A    between atoms: _74  and  _76
REMARK   32  A    between atoms: _76  and  _77
REMARK   33  A    between atoms: _76  and  _79
REMARK   34  A    between atoms: _79  and  _80
REMARK   35  A    between atoms: _85  and  _87
REMARK   36  A    between atoms: _87  and  _88
REMARK   37  A    between atoms: _87  and  _90
REMARK   38  A    between atoms: _90  and  _91
REMARK   39  A    between atoms: _96  and  _97
REMARK   40  A    between atoms: _99  and  _101
REMARK   41  A    between atoms: _101  and  _102
REMARK   42  A    between atoms: _101  and  _104
REMARK   43  A    between atoms: _104  and  _105
REMARK   44  A    between atoms: _110  and  _112
REMARK   45  A    between atoms: _112  and  _113
REMARK   46  A    between atoms: _112  and  _115
REMARK   47  A    between atoms: _115  and  _116
REMARK   48  A    between atoms: _116  and  _117
REMARK   49  A    between atoms: _122  and  _124
REMARK   50  A    between atoms: _124  and  _125
REMARK   51  A    between atoms: _124  and  _127
REMARK   52  A    between atoms: _127  and  _128
REMARK   53  A    between atoms: _128  and  _129
REMARK   54  A    between atoms: _129  and  _130
REMARK   55  A    between atoms: _139  and  _141
REMARK   56  A    between atoms: _141  and  _142
REMARK   57  A    between atoms: _141  and  _144
REMARK   58  A    between atoms: _144  and  _145
REMARK   59  A    between atoms: _148  and  _150
REMARK   60  A    between atoms: _150  and  _151
REMARK   61  A    between atoms: _150  and  _153
REMARK   62  A    between atoms: _153  and  _154
REMARK   63  A    between atoms: _157  and  _159
REMARK   64  A    between atoms: _159  and  _160
REMARK   65  A    between atoms: _159  and  _162
REMARK   66  A    between atoms: _162  and  _163
REMARK   67  A    between atoms: _166  and  _168
REMARK   68  A    between atoms: _168  and  _169
REMARK   69  A    between atoms: _168  and  _171
REMARK   70  A    between atoms: _171  and  _172
REMARK   71  A    between atoms: _175  and  _177
REMARK   72  A    between atoms: _177  and  _178
REMARK   73  A    between atoms: _177  and  _180
REMARK   74  A    between atoms: _180  and  _181
REMARK   75  A    between atoms: _181  and  _182
REMARK   76  A    between atoms: _187  and  _189
REMARK   77  A    between atoms: _189  and  _190
REMARK   78  A    between atoms: _189  and  _192
REMARK   79  A    between atoms: _192  and  _193
REMARK   80  A    between atoms: _196  and  _198
REMARK   81  A    between atoms: _198  and  _199
REMARK   82  A    between atoms: _198  and  _201
REMARK   83  A    between atoms: _201  and  _202
REMARK   84  A    between atoms: _207  and  _209
REMARK   85  A    between atoms: _209  and  _210
REMARK   86  A    between atoms: _209  and  _212
REMARK   87  A    between atoms: _215  and  _217
REMARK   88  A    between atoms: _217  and  _218
REMARK   89  A    between atoms: _217  and  _220
REMARK   90  A    between atoms: _220  and  _221
REMARK   91  A    between atoms: _224  and  _226
REMARK   92  A    between atoms: _226  and  _227
REMARK   93  A    between atoms: _226  and  _229
REMARK   94  A    between atoms: _229  and  _230
REMARK   95  A    between atoms: _233  and  _235
REMARK   96  A    between atoms: _235  and  _236
REMARK   97  A    between atoms: _235  and  _238
REMARK   98  A    between atoms: _238  and  _239
REMARK   99  A    between atoms: _245  and  _247
REMARK  100  A    between atoms: _247  and  _248
REMARK  101  A    between atoms: _247  and  _250
REMARK  102  A    between atoms: _250  and  _251
REMARK  103  A    between atoms: _256  and  _258
REMARK  104  A    between atoms: _258  and  _259
REMARK  105  A    between atoms: _258  and  _261
REMARK  106  A    between atoms: _261  and  _262
REMARK  107  A    between atoms: _272  and  _274
REMARK  108  A    between atoms: _274  and  _275
REMARK  109  A    between atoms: _274  and  _277
REMARK  110  A    between atoms: _277  and  _278
REMARK  111  A    between atoms: _283  and  _284
REMARK  112  A    between atoms: _286  and  _288
REMARK  113  A    between atoms: _288  and  _289
REMARK  114  A    between atoms: _288  and  _291
REMARK  115  A    between atoms: _291  and  _292
REMARK  116  A    between atoms: _297  and  _299
REMARK  117  A    between atoms: _299  and  _300
REMARK  118  A    between atoms: _299  and  _302
REMARK  119  A    between atoms: _302  and  _303
REMARK  120  A    between atoms: _308  and  _310
REMARK  121  A    between atoms: _310  and  _311
REMARK  122  A    between atoms: _310  and  _313
REMARK  123  A    between atoms: _313  and  _314
REMARK  124  A    between atoms: _314  and  _315
REMARK  125  A    between atoms: _320  and  _322
REMARK  126  A    between atoms: _322  and  _323
REMARK  127  A    between atoms: _322  and  _325
REMARK  128  A    between atoms: _325  and  _326
REMARK  129  A    between atoms: _331  and  _332
REMARK  130  A    between atoms: _334  and  _336
REMARK  131  A    between atoms: _336  and  _337
REMARK  132  A    between atoms: _336  and  _339
REMARK  133  A    between atoms: _339  and  _340
REMARK  134  A    between atoms: _343  and  _345
REMARK  135  A    between atoms: _345  and  _346
REMARK  136  A    between atoms: _349  and  _351
REMARK  137  A    between atoms: _351  and  _352
REMARK  138  A    between atoms: _351  and  _354
REMARK  139  A    between atoms: _354  and  _355
REMARK  140  A    between atoms: _357  and  _359
REMARK  141  A    between atoms: _359  and  _360
REMARK  142  A    between atoms: _359  and  _362
REMARK  143  A    between atoms: _362  and  _363
REMARK  144  A    between atoms: _363  and  _364
REMARK  145  A    between atoms: _366  and  _368
REMARK  146  A    between atoms: _368  and  _369
REMARK  147  A    between atoms: _368  and  _371
REMARK  148  A    between atoms: _371  and  _372
REMARK  149  A    between atoms: _374  and  _376
REMARK  150  A    between atoms: _376  and  _377
REMARK  151  A    between atoms: _376  and  _379
REMARK  152  A    between atoms: _379  and  _380
REMARK  153  A    between atoms: _385  and  _386
REMARK  154  A    between atoms: _388  and  _390
REMARK  155  A    between atoms: _390  and  _391
REMARK  156  A    between atoms: _390  and  _393
REMARK  157  A    between atoms: _393  and  _394
REMARK  158  A    between atoms: _396  and  _398
REMARK  159  A    between atoms: _398  and  _399
REMARK  160  A    between atoms: _402  and  _404
REMARK  161  A    between atoms: _404  and  _405
REMARK  162  A    between atoms: _404  and  _407
REMARK  163  A    between atoms: _407  and  _408
REMARK  164  A    between atoms: _418  and  _420
REMARK  165  A    between atoms: _420  and  _421
REMARK  166  A    between atoms: _420  and  _423
REMARK  167  A    between atoms: _426  and  _428
REMARK  168  A    between atoms: _428  and  _429
REMARK  169  A    between atoms: _428  and  _431
REMARK  170  A    between atoms: _431  and  _432
REMARK  171  A    between atoms: _435  and  _437
REMARK  172  A    between atoms: _437  and  _438
REMARK  173  A    between atoms: _437  and  _440
REMARK  174  A    between atoms: _440  and  _441
REMARK  175  A    between atoms: _446  and  _447
REMARK  176  A    between atoms: _449  and  _451
REMARK  177  A    between atoms: _451  and  _452
REMARK  178  A    between atoms: _451  and  _454
REMARK  179  A    between atoms: _457  and  _459
REMARK  180  A    between atoms: _459  and  _460
REMARK  181  A    between atoms: _459  and  _462
REMARK  182  A    between atoms: _462  and  _463
REMARK  183  A    between atoms: _469  and  _471
REMARK  184  A    between atoms: _471  and  _472
REMARK  185  A    between atoms: _471  and  _474
REMARK  186  A    between atoms: _474  and  _475
REMARK  187  A    between atoms: _475  and  _476
REMARK  188  A    between atoms: _481  and  _483
REMARK  189  A    between atoms: _483  and  _484
REMARK  190  A    between atoms: _483  and  _486
REMARK  191  A    between atoms: _486  and  _487
REMARK  192  A    between atoms: _489  and  _491
REMARK  193  A    between atoms: _491  and  _492
REMARK  194  A    between atoms: _491  and  _494
REMARK  195  A    between atoms: _494  and  _495
REMARK  196  A    between atoms: _500  and  _502
REMARK  197  A    between atoms: _502  and  _503
REMARK  198  A    between atoms: _502  and  _505
REMARK  199  A    between atoms: _505  and  _506
REMARK  200  A    between atoms: _516  and  _518
REMARK  201  A    between atoms: _518  and  _519
REMARK  202  A    between atoms: _518  and  _521
REMARK  203  A    between atoms: _521  and  _522
REMARK  204  A    between atoms: _525  and  _527
REMARK  205  A    between atoms: _527  and  _528
REMARK  206  A    between atoms: _527  and  _530
REMARK  207  A    between atoms: _530  and  _531
REMARK  208  A    between atoms: _536  and  _537
REMARK  209  A    between atoms: _539  and  _541
REMARK  210  A    between atoms: _541  and  _542
REMARK  211  A    between atoms: _541  and  _544
REMARK  212  A    between atoms: _544  and  _545
REMARK  213  A    between atoms: _548  and  _550
REMARK  214  A    between atoms: _550  and  _551
REMARK  215  A    between atoms: _550  and  _553
REMARK  216  A    between atoms: _553  and  _554
REMARK  217  A    between atoms: _554  and  _555
REMARK  218  A    between atoms: _558  and  _560
REMARK  219  A    between atoms: _560  and  _561
REMARK  220  A    between atoms: _560  and  _563
REMARK  221  A    between atoms: _563  and  _564
REMARK  222  A    between atoms: _569  and  _571
REMARK  223  A    between atoms: _571  and  _572
REMARK  224  A    between atoms: _574  and  _576
REMARK  225  A    between atoms: _576  and  _577
REMARK  226  A    between atoms: _576  and  _579
REMARK  227  A    between atoms: _579  and  _580
REMARK  228  A    between atoms: _580  and  _581
REMARK  229  A    between atoms: _583  and  _585
REMARK  230  A    between atoms: _585  and  _586
REMARK  231  A    between atoms: _585  and  _588
REMARK  232  A    between atoms: _588  and  _589
REMARK  233  A    between atoms: _592  and  _594
REMARK  234  A    between atoms: _594  and  _595
REMARK  235  A    between atoms: _594  and  _597
REMARK  236  A    between atoms: _597  and  _598
REMARK  237  A    between atoms: _608  and  _610
REMARK  238  A    between atoms: _610  and  _611
REMARK  239  A    between atoms: _610  and  _613
REMARK  240  A    between atoms: _613  and  _614
REMARK  241  A    between atoms: _616  and  _618
REMARK  242  A    between atoms: _618  and  _619
REMARK  243  A    between atoms: _618  and  _621
REMARK  244  A    between atoms: _621  and  _622
REMARK  245  A    between atoms: _627  and  _629
REMARK  246  A    between atoms: _629  and  _630
REMARK  247  A    between atoms: _629  and  _632
REMARK  248  A    between atoms: _632  and  _633
REMARK  249  A    between atoms: _639  and  _641
REMARK  250  A    between atoms: _641  and  _642
REMARK  251  A    between atoms: _641  and  _644
REMARK  252  A    between atoms: _644  and  _645
REMARK  253  A    between atoms: _645  and  _646
REMARK  254  A    between atoms: _649  and  _651
REMARK  255  A    between atoms: _651  and  _652
REMARK  256  A    between atoms: _651  and  _654
REMARK  257  A    between atoms: _654  and  _655
REMARK  258  A    between atoms: _665  and  _667
REMARK  259  A    between atoms: _667  and  _668
REMARK  260  A    between atoms: _667  and  _670
REMARK  261  A    between atoms: _670  and  _671
REMARK  262  A    between atoms: _674  and  _676
REMARK  263  A    between atoms: _676  and  _677
REMARK  264  A    between atoms: _676  and  _679
REMARK  265  A    between atoms: _679  and  _680
REMARK  266  A    between atoms: _682  and  _684
REMARK  267  A    between atoms: _684  and  _685
REMARK  268  A    between atoms: _684  and  _687
REMARK  269  A    between atoms: _687  and  _688
REMARK  270  A    between atoms: _690  and  _692
REMARK  271  A    between atoms: _692  and  _693
REMARK  272  A    between atoms: _692  and  _695
REMARK  273  A    between atoms: _695  and  _696
REMARK                            x       y       z     vdW  Elec       q    Type
REMARK                         _______ _______ _______ _____ _____    ______ ____
ROOT
ATOM      1  O   HOH     1      -0.589   5.614  30.001  0.00  0.00    +0.000 OA
ENDROOT
TORSDOF 0
REMARK  Name = ../refined-set-2016/3f5j/3f5j_pocket.pdb
REMARK  273 active torsions:
REMARK  status: ('A' for Active; 'I' for Inactive)
REMARK    1  A    between atoms: _1  and  _3
REMARK    2  A    between atoms: _3  and  _4
REMARK    3  A    between atoms: _3  and  _6
REMARK    4  A    between atoms: _9  and  _11
REMARK    5  A    between atoms: _11  and  _12
REMARK    6  A    between atoms: _11  and  _14
REMARK    7  A    between atoms: _14  and  _15
REMARK    8  A    between atoms: _18  and  _20
REMARK    9  A    between atoms: _20  and  _21
REMARK   10  A    between atoms: _20  and  _23
REMARK   11  A    between atoms: _23  and  _24
REMARK   12  A    between atoms: _26  and  _28
REMARK   13  A    between atoms: _28  and  _29
REMARK   14  A    between atoms: _28  and  _31
REMARK   15  A    between atoms: _31  and  _32
REMARK   16  A    between atoms: _32  and  _33
REMARK   17  A    between atoms: _38  and  _40
REMARK   18  A    between atoms: _40  and  _41
REMARK   19  A    between atoms: _40  and  _43
REMARK   20  A    between atoms: _43  and  _44
REMARK   21  A    between atoms: _44  and  _45
REMARK   22  A    between atoms: _45  and  _46
REMARK   23  A    between atoms: _55  and  _57
REMARK   24  A    between atoms: _57  and  _58
REMARK   25  A    between atoms: _57  and  _60
REMARK   26  A    between atoms: _60  and  _61
REMARK   27  A    between atoms: _63  and  _65
REMARK   28  A    between atoms: _65  and  _66
REMARK   29  A    between atoms: _65  and  _68
REMARK   30  A    between atoms: _68  and  _69
REMARK   31  A    between atoms: _74  and  _76
REMARK   32  A    between atoms: _76  and  _77
REMARK   33  A    between atoms: _76  and  _79
REMARK   34  A    between atoms: _79  and  _80
REMARK   35  A    between atoms: _85  and  _87
REMARK   36  A    between atoms: _87  and  _88
REMARK   37  A    between atoms: _87  and  _90
REMARK   38  A    between atoms: _90  and  _91
REMARK   39  A    between atoms: _96  and  _97
REMARK   40  A    between atoms: _99  and  _101
REMARK   41  A    between atoms: _101  and  _102
REMARK   42  A    between atoms: _101  and  _104
REMARK   43  A    between atoms: _104  and  _105
REMARK   44  A    between atoms: _110  and  _112
REMARK   45  A    between atoms: _112  and  _113
REMARK   46  A    between atoms: _112  and  _115
REMARK   47  A    between atoms: _115  and  _116
REMARK   48  A    between atoms: _116  and  _117
REMARK   49  A    between atoms: _122  and  _124
REMARK   50  A    between atoms: _124  and  _125
REMARK   51  A    between atoms: _124  and  _127
REMARK   52  A    between atoms: _127  and  _128
REMARK   53  A    between atoms: _128  and  _129
REMARK   54  A    between atoms: _129  and  _130
REMARK   55  A    between atoms: _139  and  _141
REMARK   56  A    between atoms: _141  and  _142
REMARK   57  A    between atoms: _141  and  _144
REMARK   58  A    between atoms: _144  and  _145
REMARK   59  A    between atoms: _148  and  _150
REMARK   60  A    between atoms: _150  and  _151
REMARK   61  A    between atoms: _150  and  _153
REMARK   62  A    between atoms: _153  and  _154
REMARK   63  A    between atoms: _157  and  _159
REMARK   64  A    between atoms: _159  and  _160
REMARK   65  A    between atoms: _159  and  _162
REMARK   66  A    between atoms: _162  and  _163
REMARK   67  A    between atoms: _166  and  _168
REMARK   68  A    between atoms: _168  and  _169
REMARK   69  A    between atoms: _168  and  _171
REMARK   70  A    between atoms: _171  and  _172
REMARK   71  A    between atoms: _175  and  _177
REMARK   72  A    between atoms: _177  and  _178
REMARK   73  A    between atoms: _177  and  _180
REMARK   74  A    between atoms: _180  and  _181
REMARK   75  A    between atoms: _181  and  _182
REMARK   76  A    between atoms: _187  and  _189
REMARK   77  A    between atoms: _189  and  _190
REMARK   78  A    between atoms: _189  and  _192
REMARK   79  A    between atoms: _192  and  _193
REMARK   80  A    between atoms: _196  and  _198
REMARK   81  A    between atoms: _198  and  _199
REMARK   82  A    between atoms: _198  and  _201
REMARK   83  A    between atoms: _201  and  _202
REMARK   84  A    between atoms: _207  and  _209
REMARK   85  A    between atoms: _209  and  _210
REMARK   86  A    between atoms: _209  and  _212
REMARK   87  A    between atoms: _215  and  _217
REMARK   88  A    between atoms: _217  and  _218
REMARK   89  A    between atoms: _217  and  _220
REMARK   90  A    between atoms: _220  and  _221
REMARK   91  A    between atoms: _224  and  _226
REMARK   92  A    between atoms: _226  and  _227
REMARK   93  A    between atoms: _226  and  _229
REMARK   94  A    between atoms: _229  and  _230
REMARK   95  A    between atoms: _233  and  _235
REMARK   96  A    between atoms: _235  and  _236
REMARK   97  A    between atoms: _235  and  _238
REMARK   98  A    between atoms: _238  and  _239
REMARK   99  A    between atoms: _245  and  _247
REMARK  100  A    between atoms: _247  and  _248
REMARK  101  A    between atoms: _247  and  _250
REMARK  102  A    between atoms: _250  and  _251
REMARK  103  A    between atoms: _256  and  _258
REMARK  104  A    between atoms: _258  and  _259
REMARK  105  A    between atoms: _258  and  _261
REMARK  106  A    between atoms: _261  and  _262
REMARK  107  A    between atoms: _272  and  _274
REMARK  108  A    between atoms: _274  and  _275
REMARK  109  A    between atoms: _274  and  _277
REMARK  110  A    between atoms: _277  and  _278
REMARK  111  A    between atoms: _283  and  _284
REMARK  112  A    between atoms: _286  and  _288
REMARK  113  A    between atoms: _288  and  _289
REMARK  114  A    between atoms: _288  and  _291
REMARK  115  A    between atoms: _291  and  _292
REMARK  116  A    between atoms: _297  and  _299
REMARK  117  A    between atoms: _299  and  _300
REMARK  118  A    between atoms: _299  and  _302
REMARK  119  A    between atoms: _302  and  _303
REMARK  120  A    between atoms: _308  and  _310
REMARK  121  A    between atoms: _310  and  _311
REMARK  122  A    between atoms: _310  and  _313
REMARK  123  A    between atoms: _313  and  _314
REMARK  124  A    between atoms: _314  and  _315
REMARK  125  A    between atoms: _320  and  _322
REMARK  126  A    between atoms: _322  and  _323
REMARK  127  A    between atoms: _322  and  _325
REMARK  128  A    between atoms: _325  and  _326
REMARK  129  A    between atoms: _331  and  _332
REMARK  130  A    between atoms: _334  and  _336
REMARK  131  A    between atoms: _336  and  _337
REMARK  132  A    between atoms: _336  and  _339
REMARK  133  A    between atoms: _339  and  _340
REMARK  134  A    between atoms: _343  and  _345
REMARK  135  A    between atoms: _345  and  _346
REMARK  136  A    between atoms: _349  and  _351
REMARK  137  A    between atoms: _351  and  _352
REMARK  138  A    between atoms: _351  and  _354
REMARK  139  A    between atoms: _354  and  _355
REMARK  140  A    between atoms: _357  and  _359
REMARK  141  A    between atoms: _359  and  _360
REMARK  142  A    between atoms: _359  and  _362
REMARK  143  A    between atoms: _362  and  _363
REMARK  144  A    between atoms: _363  and  _364
REMARK  145  A    between atoms: _366  and  _368
REMARK  146  A    between atoms: _368  and  _369
REMARK  147  A    between atoms: _368  and  _371
REMARK  148  A    between atoms: _371  and  _372
REMARK  149  A    between atoms: _374  and  _376
REMARK  150  A    between atoms: _376  and  _377
REMARK  151  A    between atoms: _376  and  _379
REMARK  152  A    between atoms: _379  and  _380
REMARK  153  A    between atoms: _385  and  _386
REMARK  154  A    between atoms: _388  and  _390
REMARK  155  A    between atoms: _390  and  _391
REMARK  156  A    between atoms: _390  and  _393
REMARK  157  A    between atoms: _393  and  _394
REMARK  158  A    between atoms: _396  and  _398
REMARK  159  A    between atoms: _398  and  _399
REMARK  160  A    between atoms: _402  and  _404
REMARK  161  A    between atoms: _404  and  _405
REMARK  162  A    between atoms: _404  and  _407
REMARK  163  A    between atoms: _407  and  _408
REMARK  164  A    between atoms: _418  and  _420
REMARK  165  A    between atoms: _420  and  _421
REMARK  166  A    between atoms: _420  and  _423
REMARK  167  A    between atoms: _426  and  _428
REMARK  168  A    between atoms: _428  and  _429
REMARK  169  A    between atoms: _428  and  _431
REMARK  170  A    between atoms: _431  and  _432
REMARK  171  A    between atoms: _435  and  _437
REMARK  172  A    between atoms: _437  and  _438
REMARK  173  A    between atoms: _437  and  _440
REMARK  174  A    between atoms: _440  and  _441
REMARK  175  A    between atoms: _446  and  _447
REMARK  176  A    between atoms: _449  and  _451
REMARK  177  A    between atoms: _451  and  _452
REMARK  178  A    between atoms: _451  and  _454
REMARK  179  A    between atoms: _457  and  _459
REMARK  180  A    between atoms: _459  and  _460
REMARK  181  A    between atoms: _459  and  _462
REMARK  182  A    between atoms: _462  and  _463
REMARK  183  A    between atoms: _469  and  _471
REMARK  184  A    between atoms: _471  and  _472
REMARK  185  A    between atoms: _471  and  _474
REMARK  186  A    between atoms: _474  and  _475
REMARK  187  A    between atoms: _475  and  _476
REMARK  188  A    between atoms: _481  and  _483
REMARK  189  A    between atoms: _483  and  _484
REMARK  190  A    between atoms: _483  and  _486
REMARK  191  A    between atoms: _486  and  _487
REMARK  192  A    between atoms: _489  and  _491
REMARK  193  A    between atoms: _491  and  _492
REMARK  194  A    between atoms: _491  and  _494
REMARK  195  A    between atoms: _494  and  _495
REMARK  196  A    between atoms: _500  and  _502
REMARK  197  A    between atoms: _502  and  _503
REMARK  198  A    between atoms: _502  and  _505
REMARK  199  A    between atoms: _505  and  _506
REMARK  200  A    between atoms: _516  and  _518
REMARK  201  A    between atoms: _518  and  _519
REMARK  202  A    between atoms: _518  and  _521
REMARK  203  A    between atoms: _521  and  _522
REMARK  204  A    between atoms: _525  and  _527
REMARK  205  A    between atoms: _527  and  _528
REMARK  206  A    between atoms: _527  and  _530
REMARK  207  A    between atoms: _530  and  _531
REMARK  208  A    between atoms: _536  and  _537
REMARK  209  A    between atoms: _539  and  _541
REMARK  210  A    between atoms: _541  and  _542
REMARK  211  A    between atoms: _541  and  _544
REMARK  212  A    between atoms: _544  and  _545
REMARK  213  A    between atoms: _548  and  _550
REMARK  214  A    between atoms: _550  and  _551
REMARK  215  A    between atoms: _550  and  _553
REMARK  216  A    between atoms: _553  and  _554
REMARK  217  A    between atoms: _554  and  _555
REMARK  218  A    between atoms: _558  and  _560
REMARK  219  A    between atoms: _560  and  _561
REMARK  220  A    between atoms: _560  and  _563
REMARK  221  A    between atoms: _563  and  _564
REMARK  222  A    between atoms: _569  and  _571
REMARK  223  A    between atoms: _571  and  _572
REMARK  224  A    between atoms: _574  and  _576
REMARK  225  A    between atoms: _576  and  _577
REMARK  226  A    between atoms: _576  and  _579
REMARK  227  A    between atoms: _579  and  _580
REMARK  228  A    between atoms: _580  and  _581
REMARK  229  A    between atoms: _583  and  _585
REMARK  230  A    between atoms: _585  and  _586
REMARK  231  A    between atoms: _585  and  _588
REMARK  232  A    between atoms: _588  and  _589
REMARK  233  A    between atoms: _592  and  _594
REMARK  234  A    between atoms: _594  and  _595
REMARK  235  A    between atoms: _594  and  _597
REMARK  236  A    between atoms: _597  and  _598
REMARK  237  A    between atoms: _608  and  _610
REMARK  238  A    between atoms: _610  and  _611
REMARK  239  A    between atoms: _610  and  _613
REMARK  240  A    between atoms: _613  and  _614
REMARK  241  A    between atoms: _616  and  _618
REMARK  242  A    between atoms: _618  and  _619
REMARK  243  A    between atoms: _618  and  _621
REMARK  244  A    between atoms: _621  and  _622
REMARK  245  A    between atoms: _627  and  _629
REMARK  246  A    between atoms: _629  and  _630
REMARK  247  A    between atoms: _629  and  _632
REMARK  248  A    between atoms: _632  and  _633
REMARK  249  A    between atoms: _639  and  _641
REMARK  250  A    between atoms: _641  and  _642
REMARK  251  A    between atoms: _641  and  _644
REMARK  252  A    between atoms: _644  and  _645
REMARK  253  A    between atoms: _645  and  _646
REMARK  254  A    between atoms: _649  and  _651
REMARK  255  A    between atoms: _651  and  _652
REMARK  256  A    between atoms: _651  and  _654
REMARK  257  A    between atoms: _654  and  _655
REMARK  258  A    between atoms: _665  and  _667
REMARK  259  A    between atoms: _667  and  _668
REMARK  260  A    between atoms: _667  and  _670
REMARK  261  A    between atoms: _670  and  _671
REMARK  262  A    between atoms: _674  and  _676
REMARK  263  A    between atoms: _676  and  _677
REMARK  264  A    between atoms: _676  and  _679
REMARK  265  A    between atoms: _679  and  _680
REMARK  266  A    between atoms: _682  and  _684
REMARK  267  A    between atoms: _684  and  _685
REMARK  268  A    between atoms: _684  and  _687
REMARK  269  A    between atoms: _687  and  _688
REMARK  270  A    between atoms: _690  and  _692
REMARK  271  A    between atoms: _692  and  _693
REMARK  272  A    between atoms: _692  and  _695
REMARK  273  A    between atoms: _695  and  _696
REMARK                            x       y       z     vdW  Elec       q    Type
REMARK                         _______ _______ _______ _____ _____    ______ ____
ROOT
ATOM      1  O   HOH     1       1.156   4.093  31.372  0.00  0.00    +0.000 OA
ENDROOT
TORSDOF 0
REMARK  Name = ../refined-set-2016/3f5j/3f5j_pocket.pdb
REMARK  273 active torsions:
REMARK  status: ('A' for Active; 'I' for Inactive)
REMARK    1  A    between atoms: _1  and  _3
REMARK    2  A    between atoms: _3  and  _4
REMARK    3  A    between atoms: _3  and  _6
REMARK    4  A    between atoms: _9  and  _11
REMARK    5  A    between atoms: _11  and  _12
REMARK    6  A    between atoms: _11  and  _14
REMARK    7  A    between atoms: _14  and  _15
REMARK    8  A    between atoms: _18  and  _20
REMARK    9  A    between atoms: _20  and  _21
REMARK   10  A    between atoms: _20  and  _23
REMARK   11  A    between atoms: _23  and  _24
REMARK   12  A    between atoms: _26  and  _28
REMARK   13  A    between atoms: _28  and  _29
REMARK   14  A    between atoms: _28  and  _31
REMARK   15  A    between atoms: _31  and  _32
REMARK   16  A    between atoms: _32  and  _33
REMARK   17  A    between atoms: _38  and  _40
REMARK   18  A    between atoms: _40  and  _41
REMARK   19  A    between atoms: _40  and  _43
REMARK   20  A    between atoms: _43  and  _44
REMARK   21  A    between atoms: _44  and  _45
REMARK   22  A    between atoms: _45  and  _46
REMARK   23  A    between atoms: _55  and  _57
REMARK   24  A    between atoms: _57  and  _58
REMARK   25  A    between atoms: _57  and  _60
REMARK   26  A    between atoms: _60  and  _61
REMARK   27  A    between atoms: _63  and  _65
REMARK   28  A    between atoms: _65  and  _66
REMARK   29  A    between atoms: _65  and  _68
REMARK   30  A    between atoms: _68  and  _69
REMARK   31  A    between atoms: _74  and  _76
REMARK   32  A    between atoms: _76  and  _77
REMARK   33  A    between atoms: _76  and  _79
REMARK   34  A    between atoms: _79  and  _80
REMARK   35  A    between atoms: _85  and  _87
REMARK   36  A    between atoms: _87  and  _88
REMARK   37  A    between atoms: _87  and  _90
REMARK   38  A    between atoms: _90  and  _91
REMARK   39  A    between atoms: _96  and  _97
REMARK   40  A    between atoms: _99  and  _101
REMARK   41  A    between atoms: _101  and  _102
REMARK   42  A    between atoms: _101  and  _104
REMARK   43  A    between atoms: _104  and  _105
REMARK   44  A    between atoms: _110  and  _112
REMARK   45  A    between atoms: _112  and  _113
REMARK   46  A    between atoms: _112  and  _115
REMARK   47  A    between atoms: _115  and  _116
REMARK   48  A    between atoms: _116  and  _117
REMARK   49  A    between atoms: _122  and  _124
REMARK   50  A    between atoms: _124  and  _125
REMARK   51  A    between atoms: _124  and  _127
REMARK   52  A    between atoms: _127  and  _128
REMARK   53  A    between atoms: _128  and  _129
REMARK   54  A    between atoms: _129  and  _130
REMARK   55  A    between atoms: _139  and  _141
REMARK   56  A    between atoms: _141  and  _142
REMARK   57  A    between atoms: _141  and  _144
REMARK   58  A    between atoms: _144  and  _145
REMARK   59  A    between atoms: _148  and  _150
REMARK   60  A    between atoms: _150  and  _151
REMARK   61  A    between atoms: _150  and  _153
REMARK   62  A    between atoms: _153  and  _154
REMARK   63  A    between atoms: _157  and  _159
REMARK   64  A    between atoms: _159  and  _160
REMARK   65  A    between atoms: _159  and  _162
REMARK   66  A    between atoms: _162  and  _163
REMARK   67  A    between atoms: _166  and  _168
REMARK   68  A    between atoms: _168  and  _169
REMARK   69  A    between atoms: _168  and  _171
REMARK   70  A    between atoms: _171  and  _172
REMARK   71  A    between atoms: _175  and  _177
REMARK   72  A    between atoms: _177  and  _178
REMARK   73  A    between atoms: _177  and  _180
REMARK   74  A    between atoms: _180  and  _181
REMARK   75  A    between atoms: _181  and  _182
REMARK   76  A    between atoms: _187  and  _189
REMARK   77  A    between atoms: _189  and  _190
REMARK   78  A    between atoms: _189  and  _192
REMARK   79  A    between atoms: _192  and  _193
REMARK   80  A    between atoms: _196  and  _198
REMARK   81  A    between atoms: _198  and  _199
REMARK   82  A    between atoms: _198  and  _201
REMARK   83  A    between atoms: _201  and  _202
REMARK   84  A    between atoms: _207  and  _209
REMARK   85  A    between atoms: _209  and  _210
REMARK   86  A    between atoms: _209  and  _212
REMARK   87  A    between atoms: _215  and  _217
REMARK   88  A    between atoms: _217  and  _218
REMARK   89  A    between atoms: _217  and  _220
REMARK   90  A    between atoms: _220  and  _221
REMARK   91  A    between atoms: _224  and  _226
REMARK   92  A    between atoms: _226  and  _227
REMARK   93  A    between atoms: _226  and  _229
REMARK   94  A    between atoms: _229  and  _230
REMARK   95  A    between atoms: _233  and  _235
REMARK   96  A    between atoms: _235  and  _236
REMARK   97  A    between atoms: _235  and  _238
REMARK   98  A    between atoms: _238  and  _239
REMARK   99  A    between atoms: _245  and  _247
REMARK  100  A    between atoms: _247  and  _248
REMARK  101  A    between atoms: _247  and  _250
REMARK  102  A    between atoms: _250  and  _251
REMARK  103  A    between atoms: _256  and  _258
REMARK  104  A    between atoms: _258  and  _259
REMARK  105  A    between atoms: _258  and  _261
REMARK  106  A    between atoms: _261  and  _262
REMARK  107  A    between atoms: _272  and  _274
REMARK  108  A    between atoms: _274  and  _275
REMARK  109  A    between atoms: _274  and  _277
REMARK  110  A    between atoms: _277  and  _278
REMARK  111  A    between atoms: _283  and  _284
REMARK  112  A    between atoms: _286  and  _288
REMARK  113  A    between atoms: _288  and  _289
REMARK  114  A    between atoms: _288  and  _291
REMARK  115  A    between atoms: _291  and  _292
REMARK  116  A    between atoms: _297  and  _299
REMARK  117  A    between atoms: _299  and  _300
REMARK  118  A    between atoms: _299  and  _302
REMARK  119  A    between atoms: _302  and  _303
REMARK  120  A    between atoms: _308  and  _310
REMARK  121  A    between atoms: _310  and  _311
REMARK  122  A    between atoms: _310  and  _313
REMARK  123  A    between atoms: _313  and  _314
REMARK  124  A    between atoms: _314  and  _315
REMARK  125  A    between atoms: _320  and  _322
REMARK  126  A    between atoms: _322  and  _323
REMARK  127  A    between atoms: _322  and  _325
REMARK  128  A    between atoms: _325  and  _326
REMARK  129  A    between atoms: _331  and  _332
REMARK  130  A    between atoms: _334  and  _336
REMARK  131  A    between atoms: _336  and  _337
REMARK  132  A    between atoms: _336  and  _339
REMARK  133  A    between atoms: _339  and  _340
REMARK  134  A    between atoms: _343  and  _345
REMARK  135  A    between atoms: _345  and  _346
REMARK  136  A    between atoms: _349  and  _351
REMARK  137  A    between atoms: _351  and  _352
REMARK  138  A    between atoms: _351  and  _354
REMARK  139  A    between atoms: _354  and  _355
REMARK  140  A    between atoms: _357  and  _359
REMARK  141  A    between atoms: _359  and  _360
REMARK  142  A    between atoms: _359  and  _362
REMARK  143  A    between atoms: _362  and  _363
REMARK  144  A    between atoms: _363  and  _364
REMARK  145  A    between atoms: _366  and  _368
REMARK  146  A    between atoms: _368  and  _369
REMARK  147  A    between atoms: _368  and  _371
REMARK  148  A    between atoms: _371  and  _372
REMARK  149  A    between atoms: _374  and  _376
REMARK  150  A    between atoms: _376  and  _377
REMARK  151  A    between atoms: _376  and  _379
REMARK  152  A    between atoms: _379  and  _380
REMARK  153  A    between atoms: _385  and  _386
REMARK  154  A    between atoms: _388  and  _390
REMARK  155  A    between atoms: _390  and  _391
REMARK  156  A    between atoms: _390  and  _393
REMARK  157  A    between atoms: _393  and  _394
REMARK  158  A    between atoms: _396  and  _398
REMARK  159  A    between atoms: _398  and  _399
REMARK  160  A    between atoms: _402  and  _404
REMARK  161  A    between atoms: _404  and  _405
REMARK  162  A    between atoms: _404  and  _407
REMARK  163  A    between atoms: _407  and  _408
REMARK  164  A    between atoms: _418  and  _420
REMARK  165  A    between atoms: _420  and  _421
REMARK  166  A    between atoms: _420  and  _423
REMARK  167  A    between atoms: _426  and  _428
REMARK  168  A    between atoms: _428  and  _429
REMARK  169  A    between atoms: _428  and  _431
REMARK  170  A    between atoms: _431  and  _432
REMARK  171  A    between atoms: _435  and  _437
REMARK  172  A    between atoms: _437  and  _438
REMARK  173  A    between atoms: _437  and  _440
REMARK  174  A    between atoms: _440  and  _441
REMARK  175  A    between atoms: _446  and  _447
REMARK  176  A    between atoms: _449  and  _451
REMARK  177  A    between atoms: _451  and  _452
REMARK  178  A    between atoms: _451  and  _454
REMARK  179  A    between atoms: _457  and  _459
REMARK  180  A    between atoms: _459  and  _460
REMARK  181  A    between atoms: _459  and  _462
REMARK  182  A    between atoms: _462  and  _463
REMARK  183  A    between atoms: _469  and  _471
REMARK  184  A    between atoms: _471  and  _472
REMARK  185  A    between atoms: _471  and  _474
REMARK  186  A    between atoms: _474  and  _475
REMARK  187  A    between atoms: _475  and  _476
REMARK  188  A    between atoms: _481  and  _483
REMARK  189  A    between atoms: _483  and  _484
REMARK  190  A    between atoms: _483  and  _486
REMARK  191  A    between atoms: _486  and  _487
REMARK  192  A    between atoms: _489  and  _491
REMARK  193  A    between atoms: _491  and  _492
REMARK  194  A    between atoms: _491  and  _494
REMARK  195  A    between atoms: _494  and  _495
REMARK  196  A    between atoms: _500  and  _502
REMARK  197  A    between atoms: _502  and  _503
REMARK  198  A    between atoms: _502  and  _505
REMARK  199  A    between atoms: _505  and  _506
REMARK  200  A    between atoms: _516  and  _518
REMARK  201  A    between atoms: _518  and  _519
REMARK  202  A    between atoms: _518  and  _521
REMARK  203  A    between atoms: _521  and  _522
REMARK  204  A    between atoms: _525  and  _527
REMARK  205  A    between atoms: _527  and  _528
REMARK  206  A    between atoms: _527  and  _530
REMARK  207  A    between atoms: _530  and  _531
REMARK  208  A    between atoms: _536  and  _537
REMARK  209  A    between atoms: _539  and  _541
REMARK  210  A    between atoms: _541  and  _542
REMARK  211  A    between atoms: _541  and  _544
REMARK  212  A    between atoms: _544  and  _545
REMARK  213  A    between atoms: _548  and  _550
REMARK  214  A    between atoms: _550  and  _551
REMARK  215  A    between atoms: _550  and  _553
REMARK  216  A    between atoms: _553  and  _554
REMARK  217  A    between atoms: _554  and  _555
REMARK  218  A    between atoms: _558  and  _560
REMARK  219  A    between atoms: _560  and  _561
REMARK  220  A    between atoms: _560  and  _563
REMARK  221  A    between atoms: _563  and  _564
REMARK  222  A    between atoms: _569  and  _571
REMARK  223  A    between atoms: _571  and  _572
REMARK  224  A    between atoms: _574  and  _576
REMARK  225  A    between atoms: _576  and  _577
REMARK  226  A    between atoms: _576  and  _579
REMARK  227  A    between atoms: _579  and  _580
REMARK  228  A    between atoms: _580  and  _581
REMARK  229  A    between atoms: _583  and  _585
REMARK  230  A    between atoms: _585  and  _586
REMARK  231  A    between atoms: _585  and  _588
REMARK  232  A    between atoms: _588  and  _589
REMARK  233  A    between atoms: _592  and  _594
REMARK  234  A    between atoms: _594  and  _595
REMARK  235  A    between atoms: _594  and  _597
REMARK  236  A    between atoms: _597  and  _598
REMARK  237  A    between atoms: _608  and  _610
REMARK  238  A    between atoms: _610  and  _611
REMARK  239  A    between atoms: _610  and  _613
REMARK  240  A    between atoms: _613  and  _614
REMARK  241  A    between atoms: _616  and  _618
REMARK  242  A    between atoms: _618  and  _619
REMARK  243  A    between atoms: _618  and  _621
REMARK  244  A    between atoms: _621  and  _622
REMARK  245  A    between atoms: _627  and  _629
REMARK  246  A    between atoms: _629  and  _630
REMARK  247  A    between atoms: _629  and  _632
REMARK  248  A    between atoms: _632  and  _633
REMARK  249  A    between atoms: _639  and  _641
REMARK  250  A    between atoms: _641  and  _642
REMARK  251  A    between atoms: _641  and  _644
REMARK  252  A    between atoms: _644  and  _645
REMARK  253  A    between atoms: _645  and  _646
REMARK  254  A    between atoms: _649  and  _651
REMARK  255  A    between atoms: _651  and  _652
REMARK  256  A    between atoms: _651  and  _654
REMARK  257  A    between atoms: _654  and  _655
REMARK  258  A    between atoms: _665  and  _667
REMARK  259  A    between atoms: _667  and  _668
REMARK  260  A    between atoms: _667  and  _670
REMARK  261  A    between atoms: _670  and  _671
REMARK  262  A    between atoms: _674  and  _676
REMARK  263  A    between atoms: _676  and  _677
REMARK  264  A    between atoms: _676  and  _679
REMARK  265  A    between atoms: _679  and  _680
REMARK  266  A    between atoms: _682  and  _684
REMARK  267  A    between atoms: _684  and  _685
REMARK  268  A    between atoms: _684  and  _687
REMARK  269  A    between atoms: _687  and  _688
REMARK  270  A    between atoms: _690  and  _692
REMARK  271  A    between atoms: _692  and  _693
REMARK  272  A    between atoms: _692  and  _695
REMARK  273  A    between atoms: _695  and  _696
REMARK                            x       y       z     vdW  Elec       q    Type
REMARK                         _______ _______ _______ _____ _____    ______ ____
ROOT
ATOM      1  O   HOH     1      -1.117  -3.010  46.984  0.00  0.00    +0.000 OA
ENDROOT
TORSDOF 0
REMARK  Name = ../refined-set-2016/3f5j/3f5j_pocket.pdb
REMARK  273 active torsions:
REMARK  status: ('A' for Active; 'I' for Inactive)
REMARK    1  A    between atoms: _1  and  _3
REMARK    2  A    between atoms: _3  and  _4
REMARK    3  A    between atoms: _3  and  _6
REMARK    4  A    between atoms: _9  and  _11
REMARK    5  A    between atoms: _11  and  _12
REMARK    6  A    between atoms: _11  and  _14
REMARK    7  A    between atoms: _14  and  _15
REMARK    8  A    between atoms: _18  and  _20
REMARK    9  A    between atoms: _20  and  _21
REMARK   10  A    between atoms: _20  and  _23
REMARK   11  A    between atoms: _23  and  _24
REMARK   12  A    between atoms: _26  and  _28
REMARK   13  A    between atoms: _28  and  _29
REMARK   14  A    between atoms: _28  and  _31
REMARK   15  A    between atoms: _31  and  _32
REMARK   16  A    between atoms: _32  and  _33
REMARK   17  A    between atoms: _38  and  _40
REMARK   18  A    between atoms: _40  and  _41
REMARK   19  A    between atoms: _40  and  _43
REMARK   20  A    between atoms: _43  and  _44
REMARK   21  A    between atoms: _44  and  _45
REMARK   22  A    between atoms: _45  and  _46
REMARK   23  A    between atoms: _55  and  _57
REMARK   24  A    between atoms: _57  and  _58
REMARK   25  A    between atoms: _57  and  _60
REMARK   26  A    between atoms: _60  and  _61
REMARK   27  A    between atoms: _63  and  _65
REMARK   28  A    between atoms: _65  and  _66
REMARK   29  A    between atoms: _65  and  _68
REMARK   30  A    between atoms: _68  and  _69
REMARK   31  A    between atoms: _74  and  _76
REMARK   32  A    between atoms: _76  and  _77
REMARK   33  A    between atoms: _76  and  _79
REMARK   34  A    between atoms: _79  and  _80
REMARK   35  A    between atoms: _85  and  _87
REMARK   36  A    between atoms: _87  and  _88
REMARK   37  A    between atoms: _87  and  _90
REMARK   38  A    between atoms: _90  and  _91
REMARK   39  A    between atoms: _96  and  _97
REMARK   40  A    between atoms: _99  and  _101
REMARK   41  A    between atoms: _101  and  _102
REMARK   42  A    between atoms: _101  and  _104
REMARK   43  A    between atoms: _104  and  _105
REMARK   44  A    between atoms: _110  and  _112
REMARK   45  A    between atoms: _112  and  _113
REMARK   46  A    between atoms: _112  and  _115
REMARK   47  A    between atoms: _115  and  _116
REMARK   48  A    between atoms: _116  and  _117
REMARK   49  A    between atoms: _122  and  _124
REMARK   50  A    between atoms: _124  and  _125
REMARK   51  A    between atoms: _124  and  _127
REMARK   52  A    between atoms: _127  and  _128
REMARK   53  A    between atoms: _128  and  _129
REMARK   54  A    between atoms: _129  and  _130
REMARK   55  A    between atoms: _139  and  _141
REMARK   56  A    between atoms: _141  and  _142
REMARK   57  A    between atoms: _141  and  _144
REMARK   58  A    between atoms: _144  and  _145
REMARK   59  A    between atoms: _148  and  _150
REMARK   60  A    between atoms: _150  and  _151
REMARK   61  A    between atoms: _150  and  _153
REMARK   62  A    between atoms: _153  and  _154
REMARK   63  A    between atoms: _157  and  _159
REMARK   64  A    between atoms: _159  and  _160
REMARK   65  A    between atoms: _159  and  _162
REMARK   66  A    between atoms: _162  and  _163
REMARK   67  A    between atoms: _166  and  _168
REMARK   68  A    between atoms: _168  and  _169
REMARK   69  A    between atoms: _168  and  _171
REMARK   70  A    between atoms: _171  and  _172
REMARK   71  A    between atoms: _175  and  _177
REMARK   72  A    between atoms: _177  and  _178
REMARK   73  A    between atoms: _177  and  _180
REMARK   74  A    between atoms: _180  and  _181
REMARK   75  A    between atoms: _181  and  _182
REMARK   76  A    between atoms: _187  and  _189
REMARK   77  A    between atoms: _189  and  _190
REMARK   78  A    between atoms: _189  and  _192
REMARK   79  A    between atoms: _192  and  _193
REMARK   80  A    between atoms: _196  and  _198
REMARK   81  A    between atoms: _198  and  _199
REMARK   82  A    between atoms: _198  and  _201
REMARK   83  A    between atoms: _201  and  _202
REMARK   84  A    between atoms: _207  and  _209
REMARK   85  A    between atoms: _209  and  _210
REMARK   86  A    between atoms: _209  and  _212
REMARK   87  A    between atoms: _215  and  _217
REMARK   88  A    between atoms: _217  and  _218
REMARK   89  A    between atoms: _217  and  _220
REMARK   90  A    between atoms: _220  and  _221
REMARK   91  A    between atoms: _224  and  _226
REMARK   92  A    between atoms: _226  and  _227
REMARK   93  A    between atoms: _226  and  _229
REMARK   94  A    between atoms: _229  and  _230
REMARK   95  A    between atoms: _233  and  _235
REMARK   96  A    between atoms: _235  and  _236
REMARK   97  A    between atoms: _235  and  _238
REMARK   98  A    between atoms: _238  and  _239
REMARK   99  A    between atoms: _245  and  _247
REMARK  100  A    between atoms: _247  and  _248
REMARK  101  A    between atoms: _247  and  _250
REMARK  102  A    between atoms: _250  and  _251
REMARK  103  A    between atoms: _256  and  _258
REMARK  104  A    between atoms: _258  and  _259
REMARK  105  A    between atoms: _258  and  _261
REMARK  106  A    between atoms: _261  and  _262
REMARK  107  A    between atoms: _272  and  _274
REMARK  108  A    between atoms: _274  and  _275
REMARK  109  A    between atoms: _274  and  _277
REMARK  110  A    between atoms: _277  and  _278
REMARK  111  A    between atoms: _283  and  _284
REMARK  112  A    between atoms: _286  and  _288
REMARK  113  A    between atoms: _288  and  _289
REMARK  114  A    between atoms: _288  and  _291
REMARK  115  A    between atoms: _291  and  _292
REMARK  116  A    between atoms: _297  and  _299
REMARK  117  A    between atoms: _299  and  _300
REMARK  118  A    between atoms: _299  and  _302
REMARK  119  A    between atoms: _302  and  _303
REMARK  120  A    between atoms: _308  and  _310
REMARK  121  A    between atoms: _310  and  _311
REMARK  122  A    between atoms: _310  and  _313
REMARK  123  A    between atoms: _313  and  _314
REMARK  124  A    between atoms: _314  and  _315
REMARK  125  A    between atoms: _320  and  _322
REMARK  126  A    between atoms: _322  and  _323
REMARK  127  A    between atoms: _322  and  _325
REMARK  128  A    between atoms: _325  and  _326
REMARK  129  A    between atoms: _331  and  _332
REMARK  130  A    between atoms: _334  and  _336
REMARK  131  A    between atoms: _336  and  _337
REMARK  132  A    between atoms: _336  and  _339
REMARK  133  A    between atoms: _339  and  _340
REMARK  134  A    between atoms: _343  and  _345
REMARK  135  A    between atoms: _345  and  _346
REMARK  136  A    between atoms: _349  and  _351
REMARK  137  A    between atoms: _351  and  _352
REMARK  138  A    between atoms: _351  and  _354
REMARK  139  A    between atoms: _354  and  _355
REMARK  140  A    between atoms: _357  and  _359
REMARK  141  A    between atoms: _359  and  _360
REMARK  142  A    between atoms: _359  and  _362
REMARK  143  A    between atoms: _362  and  _363
REMARK  144  A    between atoms: _363  and  _364
REMARK  145  A    between atoms: _366  and  _368
REMARK  146  A    between atoms: _368  and  _369
REMARK  147  A    between atoms: _368  and  _371
REMARK  148  A    between atoms: _371  and  _372
REMARK  149  A    between atoms: _374  and  _376
REMARK  150  A    between atoms: _376  and  _377
REMARK  151  A    between atoms: _376  and  _379
REMARK  152  A    between atoms: _379  and  _380
REMARK  153  A    between atoms: _385  and  _386
REMARK  154  A    between atoms: _388  and  _390
REMARK  155  A    between atoms: _390  and  _391
REMARK  156  A    between atoms: _390  and  _393
REMARK  157  A    between atoms: _393  and  _394
REMARK  158  A    between atoms: _396  and  _398
REMARK  159  A    between atoms: _398  and  _399
REMARK  160  A    between atoms: _402  and  _404
REMARK  161  A    between atoms: _404  and  _405
REMARK  162  A    between atoms: _404  and  _407
REMARK  163  A    between atoms: _407  and  _408
REMARK  164  A    between atoms: _418  and  _420
REMARK  165  A    between atoms: _420  and  _421
REMARK  166  A    between atoms: _420  and  _423
REMARK  167  A    between atoms: _426  and  _428
REMARK  168  A    between atoms: _428  and  _429
REMARK  169  A    between atoms: _428  and  _431
REMARK  170  A    between atoms: _431  and  _432
REMARK  171  A    between atoms: _435  and  _437
REMARK  172  A    between atoms: _437  and  _438
REMARK  173  A    between atoms: _437  and  _440
REMARK  174  A    between atoms: _440  and  _441
REMARK  175  A    between atoms: _446  and  _447
REMARK  176  A    between atoms: _449  and  _451
REMARK  177  A    between atoms: _451  and  _452
REMARK  178  A    between atoms: _451  and  _454
REMARK  179  A    between atoms: _457  and  _459
REMARK  180  A    between atoms: _459  and  _460
REMARK  181  A    between atoms: _459  and  _462
REMARK  182  A    between atoms: _462  and  _463
REMARK  183  A    between atoms: _469  and  _471
REMARK  184  A    between atoms: _471  and  _472
REMARK  185  A    between atoms: _471  and  _474
REMARK  186  A    between atoms: _474  and  _475
REMARK  187  A    between atoms: _475  and  _476
REMARK  188  A    between atoms: _481  and  _483
REMARK  189  A    between atoms: _483  and  _484
REMARK  190  A    between atoms: _483  and  _486
REMARK  191  A    between atoms: _486  and  _487
REMARK  192  A    between atoms: _489  and  _491
REMARK  193  A    between atoms: _491  and  _492
REMARK  194  A    between atoms: _491  and  _494
REMARK  195  A    between atoms: _494  and  _495
REMARK  196  A    between atoms: _500  and  _502
REMARK  197  A    between atoms: _502  and  _503
REMARK  198  A    between atoms: _502  and  _505
REMARK  199  A    between atoms: _505  and  _506
REMARK  200  A    between atoms: _516  and  _518
REMARK  201  A    between atoms: _518  and  _519
REMARK  202  A    between atoms: _518  and  _521
REMARK  203  A    between atoms: _521  and  _522
REMARK  204  A    between atoms: _525  and  _527
REMARK  205  A    between atoms: _527  and  _528
REMARK  206  A    between atoms: _527  and  _530
REMARK  207  A    between atoms: _530  and  _531
REMARK  208  A    between atoms: _536  and  _537
REMARK  209  A    between atoms: _539  and  _541
REMARK  210  A    between atoms: _541  and  _542
REMARK  211  A    between atoms: _541  and  _544
REMARK  212  A    between atoms: _544  and  _545
REMARK  213  A    between atoms: _548  and  _550
REMARK  214  A    between atoms: _550  and  _551
REMARK  215  A    between atoms: _550  and  _553
REMARK  216  A    between atoms: _553  and  _554
REMARK  217  A    between atoms: _554  and  _555
REMARK  218  A    between atoms: _558  and  _560
REMARK  219  A    between atoms: _560  and  _561
REMARK  220  A    between atoms: _560  and  _563
REMARK  221  A    between atoms: _563  and  _564
REMARK  222  A    between atoms: _569  and  _571
REMARK  223  A    between atoms: _571  and  _572
REMARK  224  A    between atoms: _574  and  _576
REMARK  225  A    between atoms: _576  and  _577
REMARK  226  A    between atoms: _576  and  _579
REMARK  227  A    between atoms: _579  and  _580
REMARK  228  A    between atoms: _580  and  _581
REMARK  229  A    between atoms: _583  and  _585
REMARK  230  A    between atoms: _585  and  _586
REMARK  231  A    between atoms: _585  and  _588
REMARK  232  A    between atoms: _588  and  _589
REMARK  233  A    between atoms: _592  and  _594
REMARK  234  A    between atoms: _594  and  _595
REMARK  235  A    between atoms: _594  and  _597
REMARK  236  A    between atoms: _597  and  _598
REMARK  237  A    between atoms: _608  and  _610
REMARK  238  A    between atoms: _610  and  _611
REMARK  239  A    between atoms: _610  and  _613
REMARK  240  A    between atoms: _613  and  _614
REMARK  241  A    between atoms: _616  and  _618
REMARK  242  A    between atoms: _618  and  _619
REMARK  243  A    between atoms: _618  and  _621
REMARK  244  A    between atoms: _621  and  _622
REMARK  245  A    between atoms: _627  and  _629
REMARK  246  A    between atoms: _629  and  _630
REMARK  247  A    between atoms: _629  and  _632
REMARK  248  A    between atoms: _632  and  _633
REMARK  249  A    between atoms: _639  and  _641
REMARK  250  A    between atoms: _641  and  _642
REMARK  251  A    between atoms: _641  and  _644
REMARK  252  A    between atoms: _644  and  _645
REMARK  253  A    between atoms: _645  and  _646
REMARK  254  A    between atoms: _649  and  _651
REMARK  255  A    between atoms: _651  and  _652
REMARK  256  A    between atoms: _651  and  _654
REMARK  257  A    between atoms: _654  and  _655
REMARK  258  A    between atoms: _665  and  _667
REMARK  259  A    between atoms: _667  and  _668
REMARK  260  A    between atoms: _667  and  _670
REMARK  261  A    between atoms: _670  and  _671
REMARK  262  A    between atoms: _674  and  _676
REMARK  263  A    between atoms: _676  and  _677
REMARK  264  A    between atoms: _676  and  _679
REMARK  265  A    between atoms: _679  and  _680
REMARK  266  A    between atoms: _682  and  _684
REMARK  267  A    between atoms: _684  and  _685
REMARK  268  A    between atoms: _684  and  _687
REMARK  269  A    between atoms: _687  and  _688
REMARK  270  A    between atoms: _690  and  _692
REMARK  271  A    between atoms: _692  and  _693
REMARK  272  A    between atoms: _692  and  _695
REMARK  273  A    between atoms: _695  and  _696
REMARK                            x       y       z     vdW  Elec       q    Type
REMARK                         _______ _______ _______ _____ _____    ______ ____
ROOT
ATOM      1  O   HOH     1       3.444  -7.596  37.395  0.00  0.00    +0.000 OA
ENDROOT
TORSDOF 0
REMARK  Name = ../refined-set-2016/3f5j/3f5j_pocket.pdb
REMARK  273 active torsions:
REMARK  status: ('A' for Active; 'I' for Inactive)
REMARK    1  A    between atoms: _1  and  _3
REMARK    2  A    between atoms: _3  and  _4
REMARK    3  A    between atoms: _3  and  _6
REMARK    4  A    between atoms: _9  and  _11
REMARK    5  A    between atoms: _11  and  _12
REMARK    6  A    between atoms: _11  and  _14
REMARK    7  A    between atoms: _14  and  _15
REMARK    8  A    between atoms: _18  and  _20
REMARK    9  A    between atoms: _20  and  _21
REMARK   10  A    between atoms: _20  and  _23
REMARK   11  A    between atoms: _23  and  _24
REMARK   12  A    between atoms: _26  and  _28
REMARK   13  A    between atoms: _28  and  _29
REMARK   14  A    between atoms: _28  and  _31
REMARK   15  A    between atoms: _31  and  _32
REMARK   16  A    between atoms: _32  and  _33
REMARK   17  A    between atoms: _38  and  _40
REMARK   18  A    between atoms: _40  and  _41
REMARK   19  A    between atoms: _40  and  _43
REMARK   20  A    between atoms: _43  and  _44
REMARK   21  A    between atoms: _44  and  _45
REMARK   22  A    between atoms: _45  and  _46
REMARK   23  A    between atoms: _55  and  _57
REMARK   24  A    between atoms: _57  and  _58
REMARK   25  A    between atoms: _57  and  _60
REMARK   26  A    between atoms: _60  and  _61
REMARK   27  A    between atoms: _63  and  _65
REMARK   28  A    between atoms: _65  and  _66
REMARK   29  A    between atoms: _65  and  _68
REMARK   30  A    between atoms: _68  and  _69
REMARK   31  A    between atoms: _74  and  _76
REMARK   32  A    between atoms: _76  and  _77
REMARK   33  A    between atoms: _76  and  _79
REMARK   34  A    between atoms: _79  and  _80
REMARK   35  A    between atoms: _85  and  _87
REMARK   36  A    between atoms: _87  and  _88
REMARK   37  A    between atoms: _87  and  _90
REMARK   38  A    between atoms: _90  and  _91
REMARK   39  A    between atoms: _96  and  _97
REMARK   40  A    between atoms: _99  and  _101
REMARK   41  A    between atoms: _101  and  _102
REMARK   42  A    between atoms: _101  and  _104
REMARK   43  A    between atoms: _104  and  _105
REMARK   44  A    between atoms: _110  and  _112
REMARK   45  A    between atoms: _112  and  _113
REMARK   46  A    between atoms: _112  and  _115
REMARK   47  A    between atoms: _115  and  _116
REMARK   48  A    between atoms: _116  and  _117
REMARK   49  A    between atoms: _122  and  _124
REMARK   50  A    between atoms: _124  and  _125
REMARK   51  A    between atoms: _124  and  _127
REMARK   52  A    between atoms: _127  and  _128
REMARK   53  A    between atoms: _128  and  _129
REMARK   54  A    between atoms: _129  and  _130
REMARK   55  A    between atoms: _139  and  _141
REMARK   56  A    between atoms: _141  and  _142
REMARK   57  A    between atoms: _141  and  _144
REMARK   58  A    between atoms: _144  and  _145
REMARK   59  A    between atoms: _148  and  _150
REMARK   60  A    between atoms: _150  and  _151
REMARK   61  A    between atoms: _150  and  _153
REMARK   62  A    between atoms: _153  and  _154
REMARK   63  A    between atoms: _157  and  _159
REMARK   64  A    between atoms: _159  and  _160
REMARK   65  A    between atoms: _159  and  _162
REMARK   66  A    between atoms: _162  and  _163
REMARK   67  A    between atoms: _166  and  _168
REMARK   68  A    between atoms: _168  and  _169
REMARK   69  A    between atoms: _168  and  _171
REMARK   70  A    between atoms: _171  and  _172
REMARK   71  A    between atoms: _175  and  _177
REMARK   72  A    between atoms: _177  and  _178
REMARK   73  A    between atoms: _177  and  _180
REMARK   74  A    between atoms: _180  and  _181
REMARK   75  A    between atoms: _181  and  _182
REMARK   76  A    between atoms: _187  and  _189
REMARK   77  A    between atoms: _189  and  _190
REMARK   78  A    between atoms: _189  and  _192
REMARK   79  A    between atoms: _192  and  _193
REMARK   80  A    between atoms: _196  and  _198
REMARK   81  A    between atoms: _198  and  _199
REMARK   82  A    between atoms: _198  and  _201
REMARK   83  A    between atoms: _201  and  _202
REMARK   84  A    between atoms: _207  and  _209
REMARK   85  A    between atoms: _209  and  _210
REMARK   86  A    between atoms: _209  and  _212
REMARK   87  A    between atoms: _215  and  _217
REMARK   88  A    between atoms: _217  and  _218
REMARK   89  A    between atoms: _217  and  _220
REMARK   90  A    between atoms: _220  and  _221
REMARK   91  A    between atoms: _224  and  _226
REMARK   92  A    between atoms: _226  and  _227
REMARK   93  A    between atoms: _226  and  _229
REMARK   94  A    between atoms: _229  and  _230
REMARK   95  A    between atoms: _233  and  _235
REMARK   96  A    between atoms: _235  and  _236
REMARK   97  A    between atoms: _235  and  _238
REMARK   98  A    between atoms: _238  and  _239
REMARK   99  A    between atoms: _245  and  _247
REMARK  100  A    between atoms: _247  and  _248
REMARK  101  A    between atoms: _247  and  _250
REMARK  102  A    between atoms: _250  and  _251
REMARK  103  A    between atoms: _256  and  _258
REMARK  104  A    between atoms: _258  and  _259
REMARK  105  A    between atoms: _258  and  _261
REMARK  106  A    between atoms: _261  and  _262
REMARK  107  A    between atoms: _272  and  _274
REMARK  108  A    between atoms: _274  and  _275
REMARK  109  A    between atoms: _274  and  _277
REMARK  110  A    between atoms: _277  and  _278
REMARK  111  A    between atoms: _283  and  _284
REMARK  112  A    between atoms: _286  and  _288
REMARK  113  A    between atoms: _288  and  _289
REMARK  114  A    between atoms: _288  and  _291
REMARK  115  A    between atoms: _291  and  _292
REMARK  116  A    between atoms: _297  and  _299
REMARK  117  A    between atoms: _299  and  _300
REMARK  118  A    between atoms: _299  and  _302
REMARK  119  A    between atoms: _302  and  _303
REMARK  120  A    between atoms: _308  and  _310
REMARK  121  A    between atoms: _310  and  _311
REMARK  122  A    between atoms: _310  and  _313
REMARK  123  A    between atoms: _313  and  _314
REMARK  124  A    between atoms: _314  and  _315
REMARK  125  A    between atoms: _320  and  _322
REMARK  126  A    between atoms: _322  and  _323
REMARK  127  A    between atoms: _322  and  _325
REMARK  128  A    between atoms: _325  and  _326
REMARK  129  A    between atoms: _331  and  _332
REMARK  130  A    between atoms: _334  and  _336
REMARK  131  A    between atoms: _336  and  _337
REMARK  132  A    between atoms: _336  and  _339
REMARK  133  A    between atoms: _339  and  _340
REMARK  134  A    between atoms: _343  and  _345
REMARK  135  A    between atoms: _345  and  _346
REMARK  136  A    between atoms: _349  and  _351
REMARK  137  A    between atoms: _351  and  _352
REMARK  138  A    between atoms: _351  and  _354
REMARK  139  A    between atoms: _354  and  _355
REMARK  140  A    between atoms: _357  and  _359
REMARK  141  A    between atoms: _359  and  _360
REMARK  142  A    between atoms: _359  and  _362
REMARK  143  A    between atoms: _362  and  _363
REMARK  144  A    between atoms: _363  and  _364
REMARK  145  A    between atoms: _366  and  _368
REMARK  146  A    between atoms: _368  and  _369
REMARK  147  A    between atoms: _368  and  _371
REMARK  148  A    between atoms: _371  and  _372
REMARK  149  A    between atoms: _374  and  _376
REMARK  150  A    between atoms: _376  and  _377
REMARK  151  A    between atoms: _376  and  _379
REMARK  152  A    between atoms: _379  and  _380
REMARK  153  A    between atoms: _385  and  _386
REMARK  154  A    between atoms: _388  and  _390
REMARK  155  A    between atoms: _390  and  _391
REMARK  156  A    between atoms: _390  and  _393
REMARK  157  A    between atoms: _393  and  _394
REMARK  158  A    between atoms: _396  and  _398
REMARK  159  A    between atoms: _398  and  _399
REMARK  160  A    between atoms: _402  and  _404
REMARK  161  A    between atoms: _404  and  _405
REMARK  162  A    between atoms: _404  and  _407
REMARK  163  A    between atoms: _407  and  _408
REMARK  164  A    between atoms: _418  and  _420
REMARK  165  A    between atoms: _420  and  _421
REMARK  166  A    between atoms: _420  and  _423
REMARK  167  A    between atoms: _426  and  _428
REMARK  168  A    between atoms: _428  and  _429
REMARK  169  A    between atoms: _428  and  _431
REMARK  170  A    between atoms: _431  and  _432
REMARK  171  A    between atoms: _435  and  _437
REMARK  172  A    between atoms: _437  and  _438
REMARK  173  A    between atoms: _437  and  _440
REMARK  174  A    between atoms: _440  and  _441
REMARK  175  A    between atoms: _446  and  _447
REMARK  176  A    between atoms: _449  and  _451
REMARK  177  A    between atoms: _451  and  _452
REMARK  178  A    between atoms: _451  and  _454
REMARK  179  A    between atoms: _457  and  _459
REMARK  180  A    between atoms: _459  and  _460
REMARK  181  A    between atoms: _459  and  _462
REMARK  182  A    between atoms: _462  and  _463
REMARK  183  A    between atoms: _469  and  _471
REMARK  184  A    between atoms: _471  and  _472
REMARK  185  A    between atoms: _471  and  _474
REMARK  186  A    between atoms: _474  and  _475
REMARK  187  A    between atoms: _475  and  _476
REMARK  188  A    between atoms: _481  and  _483
REMARK  189  A    between atoms: _483  and  _484
REMARK  190  A    between atoms: _483  and  _486
REMARK  191  A    between atoms: _486  and  _487
REMARK  192  A    between atoms: _489  and  _491
REMARK  193  A    between atoms: _491  and  _492
REMARK  194  A    between atoms: _491  and  _494
REMARK  195  A    between atoms: _494  and  _495
REMARK  196  A    between atoms: _500  and  _502
REMARK  197  A    between atoms: _502  and  _503
REMARK  198  A    between atoms: _502  and  _505
REMARK  199  A    between atoms: _505  and  _506
REMARK  200  A    between atoms: _516  and  _518
REMARK  201  A    between atoms: _518  and  _519
REMARK  202  A    between atoms: _518  and  _521
REMARK  203  A    between atoms: _521  and  _522
REMARK  204  A    between atoms: _525  and  _527
REMARK  205  A    between atoms: _527  and  _528
REMARK  206  A    between atoms: _527  and  _530
REMARK  207  A    between atoms: _530  and  _531
REMARK  208  A    between atoms: _536  and  _537
REMARK  209  A    between atoms: _539  and  _541
REMARK  210  A    between atoms: _541  and  _542
REMARK  211  A    between atoms: _541  and  _544
REMARK  212  A    between atoms: _544  and  _545
REMARK  213  A    between atoms: _548  and  _550
REMARK  214  A    between atoms: _550  and  _551
REMARK  215  A    between atoms: _550  and  _553
REMARK  216  A    between atoms: _553  and  _554
REMARK  217  A    between atoms: _554  and  _555
REMARK  218  A    between atoms: _558  and  _560
REMARK  219  A    between atoms: _560  and  _561
REMARK  220  A    between atoms: _560  and  _563
REMARK  221  A    between atoms: _563  and  _564
REMARK  222  A    between atoms: _569  and  _571
REMARK  223  A    between atoms: _571  and  _572
REMARK  224  A    between atoms: _574  and  _576
REMARK  225  A    between atoms: _576  and  _577
REMARK  226  A    between atoms: _576  and  _579
REMARK  227  A    between atoms: _579  and  _580
REMARK  228  A    between atoms: _580  and  _581
REMARK  229  A    between atoms: _583  and  _585
REMARK  230  A    between atoms: _585  and  _586
REMARK  231  A    between atoms: _585  and  _588
REMARK  232  A    between atoms: _588  and  _589
REMARK  233  A    between atoms: _592  and  _594
REMARK  234  A    between atoms: _594  and  _595
REMARK  235  A    between atoms: _594  and  _597
REMARK  236  A    between atoms: _597  and  _598
REMARK  237  A    between atoms: _608  and  _610
REMARK  238  A    between atoms: _610  and  _611
REMARK  239  A    between atoms: _610  and  _613
REMARK  240  A    between atoms: _613  and  _614
REMARK  241  A    between atoms: _616  and  _618
REMARK  242  A    between atoms: _618  and  _619
REMARK  243  A    between atoms: _618  and  _621
REMARK  244  A    between atoms: _621  and  _622
REMARK  245  A    between atoms: _627  and  _629
REMARK  246  A    between atoms: _629  and  _630
REMARK  247  A    between atoms: _629  and  _632
REMARK  248  A    between atoms: _632  and  _633
REMARK  249  A    between atoms: _639  and  _641
REMARK  250  A    between atoms: _641  and  _642
REMARK  251  A    between atoms: _641  and  _644
REMARK  252  A    between atoms: _644  and  _645
REMARK  253  A    between atoms: _645  and  _646
REMARK  254  A    between atoms: _649  and  _651
REMARK  255  A    between atoms: _651  and  _652
REMARK  256  A    between atoms: _651  and  _654
REMARK  257  A    between atoms: _654  and  _655
REMARK  258  A    between atoms: _665  and  _667
REMARK  259  A    between atoms: _667  and  _668
REMARK  260  A    between atoms: _667  and  _670
REMARK  261  A    between atoms: _670  and  _671
REMARK  262  A    between atoms: _674  and  _676
REMARK  263  A    between atoms: _676  and  _677
REMARK  264  A    between atoms: _676  and  _679
REMARK  265  A    between atoms: _679  and  _680
REMARK  266  A    between atoms: _682  and  _684
REMARK  267  A    between atoms: _684  and  _685
REMARK  268  A    between atoms: _684  and  _687
REMARK  269  A    between atoms: _687  and  _688
REMARK  270  A    between atoms: _690  and  _692
REMARK  271  A    between atoms: _692  and  _693
REMARK  272  A    between atoms: _692  and  _695
REMARK  273  A    between atoms: _695  and  _696
REMARK                            x       y       z     vdW  Elec       q    Type
REMARK                         _______ _______ _______ _____ _____    ______ ____
ROOT
ATOM      1  O   HOH     1      -1.615  -9.174  51.029  0.00  0.00    +0.000 OA
ENDROOT
TORSDOF 0
REMARK  Name = ../refined-set-2016/3f5j/3f5j_pocket.pdb
REMARK  273 active torsions:
REMARK  status: ('A' for Active; 'I' for Inactive)
REMARK    1  A    between atoms: _1  and  _3
REMARK    2  A    between atoms: _3  and  _4
REMARK    3  A    between atoms: _3  and  _6
REMARK    4  A    between atoms: _9  and  _11
REMARK    5  A    between atoms: _11  and  _12
REMARK    6  A    between atoms: _11  and  _14
REMARK    7  A    between atoms: _14  and  _15
REMARK    8  A    between atoms: _18  and  _20
REMARK    9  A    between atoms: _20  and  _21
REMARK   10  A    between atoms: _20  and  _23
REMARK   11  A    between atoms: _23  and  _24
REMARK   12  A    between atoms: _26  and  _28
REMARK   13  A    between atoms: _28  and  _29
REMARK   14  A    between atoms: _28  and  _31
REMARK   15  A    between atoms: _31  and  _32
REMARK   16  A    between atoms: _32  and  _33
REMARK   17  A    between atoms: _38  and  _40
REMARK   18  A    between atoms: _40  and  _41
REMARK   19  A    between atoms: _40  and  _43
REMARK   20  A    between atoms: _43  and  _44
REMARK   21  A    between atoms: _44  and  _45
REMARK   22  A    between atoms: _45  and  _46
REMARK   23  A    between atoms: _55  and  _57
REMARK   24  A    between atoms: _57  and  _58
REMARK   25  A    between atoms: _57  and  _60
REMARK   26  A    between atoms: _60  and  _61
REMARK   27  A    between atoms: _63  and  _65
REMARK   28  A    between atoms: _65  and  _66
REMARK   29  A    between atoms: _65  and  _68
REMARK   30  A    between atoms: _68  and  _69
REMARK   31  A    between atoms: _74  and  _76
REMARK   32  A    between atoms: _76  and  _77
REMARK   33  A    between atoms: _76  and  _79
REMARK   34  A    between atoms: _79  and  _80
REMARK   35  A    between atoms: _85  and  _87
REMARK   36  A    between atoms: _87  and  _88
REMARK   37  A    between atoms: _87  and  _90
REMARK   38  A    between atoms: _90  and  _91
REMARK   39  A    between atoms: _96  and  _97
REMARK   40  A    between atoms: _99  and  _101
REMARK   41  A    between atoms: _101  and  _102
REMARK   42  A    between atoms: _101  and  _104
REMARK   43  A    between atoms: _104  and  _105
REMARK   44  A    between atoms: _110  and  _112
REMARK   45  A    between atoms: _112  and  _113
REMARK   46  A    between atoms: _112  and  _115
REMARK   47  A    between atoms: _115  and  _116
REMARK   48  A    between atoms: _116  and  _117
REMARK   49  A    between atoms: _122  and  _124
REMARK   50  A    between atoms: _124  and  _125
REMARK   51  A    between atoms: _124  and  _127
REMARK   52  A    between atoms: _127  and  _128
REMARK   53  A    between atoms: _128  and  _129
REMARK   54  A    between atoms: _129  and  _130
REMARK   55  A    between atoms: _139  and  _141
REMARK   56  A    between atoms: _141  and  _142
REMARK   57  A    between atoms: _141  and  _144
REMARK   58  A    between atoms: _144  and  _145
REMARK   59  A    between atoms: _148  and  _150
REMARK   60  A    between atoms: _150  and  _151
REMARK   61  A    between atoms: _150  and  _153
REMARK   62  A    between atoms: _153  and  _154
REMARK   63  A    between atoms: _157  and  _159
REMARK   64  A    between atoms: _159  and  _160
REMARK   65  A    between atoms: _159  and  _162
REMARK   66  A    between atoms: _162  and  _163
REMARK   67  A    between atoms: _166  and  _168
REMARK   68  A    between atoms: _168  and  _169
REMARK   69  A    between atoms: _168  and  _171
REMARK   70  A    between atoms: _171  and  _172
REMARK   71  A    between atoms: _175  and  _177
REMARK   72  A    between atoms: _177  and  _178
REMARK   73  A    between atoms: _177  and  _180
REMARK   74  A    between atoms: _180  and  _181
REMARK   75  A    between atoms: _181  and  _182
REMARK   76  A    between atoms: _187  and  _189
REMARK   77  A    between atoms: _189  and  _190
REMARK   78  A    between atoms: _189  and  _192
REMARK   79  A    between atoms: _192  and  _193
REMARK   80  A    between atoms: _196  and  _198
REMARK   81  A    between atoms: _198  and  _199
REMARK   82  A    between atoms: _198  and  _201
REMARK   83  A    between atoms: _201  and  _202
REMARK   84  A    between atoms: _207  and  _209
REMARK   85  A    between atoms: _209  and  _210
REMARK   86  A    between atoms: _209  and  _212
REMARK   87  A    between atoms: _215  and  _217
REMARK   88  A    between atoms: _217  and  _218
REMARK   89  A    between atoms: _217  and  _220
REMARK   90  A    between atoms: _220  and  _221
REMARK   91  A    between atoms: _224  and  _226
REMARK   92  A    between atoms: _226  and  _227
REMARK   93  A    between atoms: _226  and  _229
REMARK   94  A    between atoms: _229  and  _230
REMARK   95  A    between atoms: _233  and  _235
REMARK   96  A    between atoms: _235  and  _236
REMARK   97  A    between atoms: _235  and  _238
REMARK   98  A    between atoms: _238  and  _239
REMARK   99  A    between atoms: _245  and  _247
REMARK  100  A    between atoms: _247  and  _248
REMARK  101  A    between atoms: _247  and  _250
REMARK  102  A    between atoms: _250  and  _251
REMARK  103  A    between atoms: _256  and  _258
REMARK  104  A    between atoms: _258  and  _259
REMARK  105  A    between atoms: _258  and  _261
REMARK  106  A    between atoms: _261  and  _262
REMARK  107  A    between atoms: _272  and  _274
REMARK  108  A    between atoms: _274  and  _275
REMARK  109  A    between atoms: _274  and  _277
REMARK  110  A    between atoms: _277  and  _278
REMARK  111  A    between atoms: _283  and  _284
REMARK  112  A    between atoms: _286  and  _288
REMARK  113  A    between atoms: _288  and  _289
REMARK  114  A    between atoms: _288  and  _291
REMARK  115  A    between atoms: _291  and  _292
REMARK  116  A    between atoms: _297  and  _299
REMARK  117  A    between atoms: _299  and  _300
REMARK  118  A    between atoms: _299  and  _302
REMARK  119  A    between atoms: _302  and  _303
REMARK  120  A    between atoms: _308  and  _310
REMARK  121  A    between atoms: _310  and  _311
REMARK  122  A    between atoms: _310  and  _313
REMARK  123  A    between atoms: _313  and  _314
REMARK  124  A    between atoms: _314  and  _315
REMARK  125  A    between atoms: _320  and  _322
REMARK  126  A    between atoms: _322  and  _323
REMARK  127  A    between atoms: _322  and  _325
REMARK  128  A    between atoms: _325  and  _326
REMARK  129  A    between atoms: _331  and  _332
REMARK  130  A    between atoms: _334  and  _336
REMARK  131  A    between atoms: _336  and  _337
REMARK  132  A    between atoms: _336  and  _339
REMARK  133  A    between atoms: _339  and  _340
REMARK  134  A    between atoms: _343  and  _345
REMARK  135  A    between atoms: _345  and  _346
REMARK  136  A    between atoms: _349  and  _351
REMARK  137  A    between atoms: _351  and  _352
REMARK  138  A    between atoms: _351  and  _354
REMARK  139  A    between atoms: _354  and  _355
REMARK  140  A    between atoms: _357  and  _359
REMARK  141  A    between atoms: _359  and  _360
REMARK  142  A    between atoms: _359  and  _362
REMARK  143  A    between atoms: _362  and  _363
REMARK  144  A    between atoms: _363  and  _364
REMARK  145  A    between atoms: _366  and  _368
REMARK  146  A    between atoms: _368  and  _369
REMARK  147  A    between atoms: _368  and  _371
REMARK  148  A    between atoms: _371  and  _372
REMARK  149  A    between atoms: _374  and  _376
REMARK  150  A    between atoms: _376  and  _377
REMARK  151  A    between atoms: _376  and  _379
REMARK  152  A    between atoms: _379  and  _380
REMARK  153  A    between atoms: _385  and  _386
REMARK  154  A    between atoms: _388  and  _390
REMARK  155  A    between atoms: _390  and  _391
REMARK  156  A    between atoms: _390  and  _393
REMARK  157  A    between atoms: _393  and  _394
REMARK  158  A    between atoms: _396  and  _398
REMARK  159  A    between atoms: _398  and  _399
REMARK  160  A    between atoms: _402  and  _404
REMARK  161  A    between atoms: _404  and  _405
REMARK  162  A    between atoms: _404  and  _407
REMARK  163  A    between atoms: _407  and  _408
REMARK  164  A    between atoms: _418  and  _420
REMARK  165  A    between atoms: _420  and  _421
REMARK  166  A    between atoms: _420  and  _423
REMARK  167  A    between atoms: _426  and  _428
REMARK  168  A    between atoms: _428  and  _429
REMARK  169  A    between atoms: _428  and  _431
REMARK  170  A    between atoms: _431  and  _432
REMARK  171  A    between atoms: _435  and  _437
REMARK  172  A    between atoms: _437  and  _438
REMARK  173  A    between atoms: _437  and  _440
REMARK  174  A    between atoms: _440  and  _441
REMARK  175  A    between atoms: _446  and  _447
REMARK  176  A    between atoms: _449  and  _451
REMARK  177  A    between atoms: _451  and  _452
REMARK  178  A    between atoms: _451  and  _454
REMARK  179  A    between atoms: _457  and  _459
REMARK  180  A    between atoms: _459  and  _460
REMARK  181  A    between atoms: _459  and  _462
REMARK  182  A    between atoms: _462  and  _463
REMARK  183  A    between atoms: _469  and  _471
REMARK  184  A    between atoms: _471  and  _472
REMARK  185  A    between atoms: _471  and  _474
REMARK  186  A    between atoms: _474  and  _475
REMARK  187  A    between atoms: _475  and  _476
REMARK  188  A    between atoms: _481  and  _483
REMARK  189  A    between atoms: _483  and  _484
REMARK  190  A    between atoms: _483  and  _486
REMARK  191  A    between atoms: _486  and  _487
REMARK  192  A    between atoms: _489  and  _491
REMARK  193  A    between atoms: _491  and  _492
REMARK  194  A    between atoms: _491  and  _494
REMARK  195  A    between atoms: _494  and  _495
REMARK  196  A    between atoms: _500  and  _502
REMARK  197  A    between atoms: _502  and  _503
REMARK  198  A    between atoms: _502  and  _505
REMARK  199  A    between atoms: _505  and  _506
REMARK  200  A    between atoms: _516  and  _518
REMARK  201  A    between atoms: _518  and  _519
REMARK  202  A    between atoms: _518  and  _521
REMARK  203  A    between atoms: _521  and  _522
REMARK  204  A    between atoms: _525  and  _527
REMARK  205  A    between atoms: _527  and  _528
REMARK  206  A    between atoms: _527  and  _530
REMARK  207  A    between atoms: _530  and  _531
REMARK  208  A    between atoms: _536  and  _537
REMARK  209  A    between atoms: _539  and  _541
REMARK  210  A    between atoms: _541  and  _542
REMARK  211  A    between atoms: _541  and  _544
REMARK  212  A    between atoms: _544  and  _545
REMARK  213  A    between atoms: _548  and  _550
REMARK  214  A    between atoms: _550  and  _551
REMARK  215  A    between atoms: _550  and  _553
REMARK  216  A    between atoms: _553  and  _554
REMARK  217  A    between atoms: _554  and  _555
REMARK  218  A    between atoms: _558  and  _560
REMARK  219  A    between atoms: _560  and  _561
REMARK  220  A    between atoms: _560  and  _563
REMARK  221  A    between atoms: _563  and  _564
REMARK  222  A    between atoms: _569  and  _571
REMARK  223  A    between atoms: _571  and  _572
REMARK  224  A    between atoms: _574  and  _576
REMARK  225  A    between atoms: _576  and  _577
REMARK  226  A    between atoms: _576  and  _579
REMARK  227  A    between atoms: _579  and  _580
REMARK  228  A    between atoms: _580  and  _581
REMARK  229  A    between atoms: _583  and  _585
REMARK  230  A    between atoms: _585  and  _586
REMARK  231  A    between atoms: _585  and  _588
REMARK  232  A    between atoms: _588  and  _589
REMARK  233  A    between atoms: _592  and  _594
REMARK  234  A    between atoms: _594  and  _595
REMARK  235  A    between atoms: _594  and  _597
REMARK  236  A    between atoms: _597  and  _598
REMARK  237  A    between atoms: _608  and  _610
REMARK  238  A    between atoms: _610  and  _611
REMARK  239  A    between atoms: _610  and  _613
REMARK  240  A    between atoms: _613  and  _614
REMARK  241  A    between atoms: _616  and  _618
REMARK  242  A    between atoms: _618  and  _619
REMARK  243  A    between atoms: _618  and  _621
REMARK  244  A    between atoms: _621  and  _622
REMARK  245  A    between atoms: _627  and  _629
REMARK  246  A    between atoms: _629  and  _630
REMARK  247  A    between atoms: _629  and  _632
REMARK  248  A    between atoms: _632  and  _633
REMARK  249  A    between atoms: _639  and  _641
REMARK  250  A    between atoms: _641  and  _642
REMARK  251  A    between atoms: _641  and  _644
REMARK  252  A    between atoms: _644  and  _645
REMARK  253  A    between atoms: _645  and  _646
REMARK  254  A    between atoms: _649  and  _651
REMARK  255  A    between atoms: _651  and  _652
REMARK  256  A    between atoms: _651  and  _654
REMARK  257  A    between atoms: _654  and  _655
REMARK  258  A    between atoms: _665  and  _667
REMARK  259  A    between atoms: _667  and  _668
REMARK  260  A    between atoms: _667  and  _670
REMARK  261  A    between atoms: _670  and  _671
REMARK  262  A    between atoms: _674  and  _676
REMARK  263  A    between atoms: _676  and  _677
REMARK  264  A    between atoms: _676  and  _679
REMARK  265  A    between atoms: _679  and  _680
REMARK  266  A    between atoms: _682  and  _684
REMARK  267  A    between atoms: _684  and  _685
REMARK  268  A    between atoms: _684  and  _687
REMARK  269  A    between atoms: _687  and  _688
REMARK  270  A    between atoms: _690  and  _692
REMARK  271  A    between atoms: _692  and  _693
REMARK  272  A    between atoms: _692  and  _695
REMARK  273  A    between atoms: _695  and  _696
REMARK                            x       y       z     vdW  Elec       q    Type
REMARK                         _______ _______ _______ _____ _____    ______ ____
ROOT
ATOM      1  O   HOH     1       5.904   0.455  44.716  0.00  0.00    +0.000 OA
ENDROOT
TORSDOF 0
REMARK  Name = ../refined-set-2016/3f5j/3f5j_pocket.pdb
REMARK  273 active torsions:
REMARK  status: ('A' for Active; 'I' for Inactive)
REMARK    1  A    between atoms: _1  and  _3
REMARK    2  A    between atoms: _3  and  _4
REMARK    3  A    between atoms: _3  and  _6
REMARK    4  A    between atoms: _9  and  _11
REMARK    5  A    between atoms: _11  and  _12
REMARK    6  A    between atoms: _11  and  _14
REMARK    7  A    between atoms: _14  and  _15
REMARK    8  A    between atoms: _18  and  _20
REMARK    9  A    between atoms: _20  and  _21
REMARK   10  A    between atoms: _20  and  _23
REMARK   11  A    between atoms: _23  and  _24
REMARK   12  A    between atoms: _26  and  _28
REMARK   13  A    between atoms: _28  and  _29
REMARK   14  A    between atoms: _28  and  _31
REMARK   15  A    between atoms: _31  and  _32
REMARK   16  A    between atoms: _32  and  _33
REMARK   17  A    between atoms: _38  and  _40
REMARK   18  A    between atoms: _40  and  _41
REMARK   19  A    between atoms: _40  and  _43
REMARK   20  A    between atoms: _43  and  _44
REMARK   21  A    between atoms: _44  and  _45
REMARK   22  A    between atoms: _45  and  _46
REMARK   23  A    between atoms: _55  and  _57
REMARK   24  A    between atoms: _57  and  _58
REMARK   25  A    between atoms: _57  and  _60
REMARK   26  A    between atoms: _60  and  _61
REMARK   27  A    between atoms: _63  and  _65
REMARK   28  A    between atoms: _65  and  _66
REMARK   29  A    between atoms: _65  and  _68
REMARK   30  A    between atoms: _68  and  _69
REMARK   31  A    between atoms: _74  and  _76
REMARK   32  A    between atoms: _76  and  _77
REMARK   33  A    between atoms: _76  and  _79
REMARK   34  A    between atoms: _79  and  _80
REMARK   35  A    between atoms: _85  and  _87
REMARK   36  A    between atoms: _87  and  _88
REMARK   37  A    between atoms: _87  and  _90
REMARK   38  A    between atoms: _90  and  _91
REMARK   39  A    between atoms: _96  and  _97
REMARK   40  A    between atoms: _99  and  _101
REMARK   41  A    between atoms: _101  and  _102
REMARK   42  A    between atoms: _101  and  _104
REMARK   43  A    between atoms: _104  and  _105
REMARK   44  A    between atoms: _110  and  _112
REMARK   45  A    between atoms: _112  and  _113
REMARK   46  A    between atoms: _112  and  _115
REMARK   47  A    between atoms: _115  and  _116
REMARK   48  A    between atoms: _116  and  _117
REMARK   49  A    between atoms: _122  and  _124
REMARK   50  A    between atoms: _124  and  _125
REMARK   51  A    between atoms: _124  and  _127
REMARK   52  A    between atoms: _127  and  _128
REMARK   53  A    between atoms: _128  and  _129
REMARK   54  A    between atoms: _129  and  _130
REMARK   55  A    between atoms: _139  and  _141
REMARK   56  A    between atoms: _141  and  _142
REMARK   57  A    between atoms: _141  and  _144
REMARK   58  A    between atoms: _144  and  _145
REMARK   59  A    between atoms: _148  and  _150
REMARK   60  A    between atoms: _150  and  _151
REMARK   61  A    between atoms: _150  and  _153
REMARK   62  A    between atoms: _153  and  _154
REMARK   63  A    between atoms: _157  and  _159
REMARK   64  A    between atoms: _159  and  _160
REMARK   65  A    between atoms: _159  and  _162
REMARK   66  A    between atoms: _162  and  _163
REMARK   67  A    between atoms: _166  and  _168
REMARK   68  A    between atoms: _168  and  _169
REMARK   69  A    between atoms: _168  and  _171
REMARK   70  A    between atoms: _171  and  _172
REMARK   71  A    between atoms: _175  and  _177
REMARK   72  A    between atoms: _177  and  _178
REMARK   73  A    between atoms: _177  and  _180
REMARK   74  A    between atoms: _180  and  _181
REMARK   75  A    between atoms: _181  and  _182
REMARK   76  A    between atoms: _187  and  _189
REMARK   77  A    between atoms: _189  and  _190
REMARK   78  A    between atoms: _189  and  _192
REMARK   79  A    between atoms: _192  and  _193
REMARK   80  A    between atoms: _196  and  _198
REMARK   81  A    between atoms: _198  and  _199
REMARK   82  A    between atoms: _198  and  _201
REMARK   83  A    between atoms: _201  and  _202
REMARK   84  A    between atoms: _207  and  _209
REMARK   85  A    between atoms: _209  and  _210
REMARK   86  A    between atoms: _209  and  _212
REMARK   87  A    between atoms: _215  and  _217
REMARK   88  A    between atoms: _217  and  _218
REMARK   89  A    between atoms: _217  and  _220
REMARK   90  A    between atoms: _220  and  _221
REMARK   91  A    between atoms: _224  and  _226
REMARK   92  A    between atoms: _226  and  _227
REMARK   93  A    between atoms: _226  and  _229
REMARK   94  A    between atoms: _229  and  _230
REMARK   95  A    between atoms: _233  and  _235
REMARK   96  A    between atoms: _235  and  _236
REMARK   97  A    between atoms: _235  and  _238
REMARK   98  A    between atoms: _238  and  _239
REMARK   99  A    between atoms: _245  and  _247
REMARK  100  A    between atoms: _247  and  _248
REMARK  101  A    between atoms: _247  and  _250
REMARK  102  A    between atoms: _250  and  _251
REMARK  103  A    between atoms: _256  and  _258
REMARK  104  A    between atoms: _258  and  _259
REMARK  105  A    between atoms: _258  and  _261
REMARK  106  A    between atoms: _261  and  _262
REMARK  107  A    between atoms: _272  and  _274
REMARK  108  A    between atoms: _274  and  _275
REMARK  109  A    between atoms: _274  and  _277
REMARK  110  A    between atoms: _277  and  _278
REMARK  111  A    between atoms: _283  and  _284
REMARK  112  A    between atoms: _286  and  _288
REMARK  113  A    between atoms: _288  and  _289
REMARK  114  A    between atoms: _288  and  _291
REMARK  115  A    between atoms: _291  and  _292
REMARK  116  A    between atoms: _297  and  _299
REMARK  117  A    between atoms: _299  and  _300
REMARK  118  A    between atoms: _299  and  _302
REMARK  119  A    between atoms: _302  and  _303
REMARK  120  A    between atoms: _308  and  _310
REMARK  121  A    between atoms: _310  and  _311
REMARK  122  A    between atoms: _310  and  _313
REMARK  123  A    between atoms: _313  and  _314
REMARK  124  A    between atoms: _314  and  _315
REMARK  125  A    between atoms: _320  and  _322
REMARK  126  A    between atoms: _322  and  _323
REMARK  127  A    between atoms: _322  and  _325
REMARK  128  A    between atoms: _325  and  _326
REMARK  129  A    between atoms: _331  and  _332
REMARK  130  A    between atoms: _334  and  _336
REMARK  131  A    between atoms: _336  and  _337
REMARK  132  A    between atoms: _336  and  _339
REMARK  133  A    between atoms: _339  and  _340
REMARK  134  A    between atoms: _343  and  _345
REMARK  135  A    between atoms: _345  and  _346
REMARK  136  A    between atoms: _349  and  _351
REMARK  137  A    between atoms: _351  and  _352
REMARK  138  A    between atoms: _351  and  _354
REMARK  139  A    between atoms: _354  and  _355
REMARK  140  A    between atoms: _357  and  _359
REMARK  141  A    between atoms: _359  and  _360
REMARK  142  A    between atoms: _359  and  _362
REMARK  143  A    between atoms: _362  and  _363
REMARK  144  A    between atoms: _363  and  _364
REMARK  145  A    between atoms: _366  and  _368
REMARK  146  A    between atoms: _368  and  _369
REMARK  147  A    between atoms: _368  and  _371
REMARK  148  A    between atoms: _371  and  _372
REMARK  149  A    between atoms: _374  and  _376
REMARK  150  A    between atoms: _376  and  _377
REMARK  151  A    between atoms: _376  and  _379
REMARK  152  A    between atoms: _379  and  _380
REMARK  153  A    between atoms: _385  and  _386
REMARK  154  A    between atoms: _388  and  _390
REMARK  155  A    between atoms: _390  and  _391
REMARK  156  A    between atoms: _390  and  _393
REMARK  157  A    between atoms: _393  and  _394
REMARK  158  A    between atoms: _396  and  _398
REMARK  159  A    between atoms: _398  and  _399
REMARK  160  A    between atoms: _402  and  _404
REMARK  161  A    between atoms: _404  and  _405
REMARK  162  A    between atoms: _404  and  _407
REMARK  163  A    between atoms: _407  and  _408
REMARK  164  A    between atoms: _418  and  _420
REMARK  165  A    between atoms: _420  and  _421
REMARK  166  A    between atoms: _420  and  _423
REMARK  167  A    between atoms: _426  and  _428
REMARK  168  A    between atoms: _428  and  _429
REMARK  169  A    between atoms: _428  and  _431
REMARK  170  A    between atoms: _431  and  _432
REMARK  171  A    between atoms: _435  and  _437
REMARK  172  A    between atoms: _437  and  _438
REMARK  173  A    between atoms: _437  and  _440
REMARK  174  A    between atoms: _440  and  _441
REMARK  175  A    between atoms: _446  and  _447
REMARK  176  A    between atoms: _449  and  _451
REMARK  177  A    between atoms: _451  and  _452
REMARK  178  A    between atoms: _451  and  _454
REMARK  179  A    between atoms: _457  and  _459
REMARK  180  A    between atoms: _459  and  _460
REMARK  181  A    between atoms: _459  and  _462
REMARK  182  A    between atoms: _462  and  _463
REMARK  183  A    between atoms: _469  and  _471
REMARK  184  A    between atoms: _471  and  _472
REMARK  185  A    between atoms: _471  and  _474
REMARK  186  A    between atoms: _474  and  _475
REMARK  187  A    between atoms: _475  and  _476
REMARK  188  A    between atoms: _481  and  _483
REMARK  189  A    between atoms: _483  and  _484
REMARK  190  A    between atoms: _483  and  _486
REMARK  191  A    between atoms: _486  and  _487
REMARK  192  A    between atoms: _489  and  _491
REMARK  193  A    between atoms: _491  and  _492
REMARK  194  A    between atoms: _491  and  _494
REMARK  195  A    between atoms: _494  and  _495
REMARK  196  A    between atoms: _500  and  _502
REMARK  197  A    between atoms: _502  and  _503
REMARK  198  A    between atoms: _502  and  _505
REMARK  199  A    between atoms: _505  and  _506
REMARK  200  A    between atoms: _516  and  _518
REMARK  201  A    between atoms: _518  and  _519
REMARK  202  A    between atoms: _518  and  _521
REMARK  203  A    between atoms: _521  and  _522
REMARK  204  A    between atoms: _525  and  _527
REMARK  205  A    between atoms: _527  and  _528
REMARK  206  A    between atoms: _527  and  _530
REMARK  207  A    between atoms: _530  and  _531
REMARK  208  A    between atoms: _536  and  _537
REMARK  209  A    between atoms: _539  and  _541
REMARK  210  A    between atoms: _541  and  _542
REMARK  211  A    between atoms: _541  and  _544
REMARK  212  A    between atoms: _544  and  _545
REMARK  213  A    between atoms: _548  and  _550
REMARK  214  A    between atoms: _550  and  _551
REMARK  215  A    between atoms: _550  and  _553
REMARK  216  A    between atoms: _553  and  _554
REMARK  217  A    between atoms: _554  and  _555
REMARK  218  A    between atoms: _558  and  _560
REMARK  219  A    between atoms: _560  and  _561
REMARK  220  A    between atoms: _560  and  _563
REMARK  221  A    between atoms: _563  and  _564
REMARK  222  A    between atoms: _569  and  _571
REMARK  223  A    between atoms: _571  and  _572
REMARK  224  A    between atoms: _574  and  _576
REMARK  225  A    between atoms: _576  and  _577
REMARK  226  A    between atoms: _576  and  _579
REMARK  227  A    between atoms: _579  and  _580
REMARK  228  A    between atoms: _580  and  _581
REMARK  229  A    between atoms: _583  and  _585
REMARK  230  A    between atoms: _585  and  _586
REMARK  231  A    between atoms: _585  and  _588
REMARK  232  A    between atoms: _588  and  _589
REMARK  233  A    between atoms: _592  and  _594
REMARK  234  A    between atoms: _594  and  _595
REMARK  235  A    between atoms: _594  and  _597
REMARK  236  A    between atoms: _597  and  _598
REMARK  237  A    between atoms: _608  and  _610
REMARK  238  A    between atoms: _610  and  _611
REMARK  239  A    between atoms: _610  and  _613
REMARK  240  A    between atoms: _613  and  _614
REMARK  241  A    between atoms: _616  and  _618
REMARK  242  A    between atoms: _618  and  _619
REMARK  243  A    between atoms: _618  and  _621
REMARK  244  A    between atoms: _621  and  _622
REMARK  245  A    between atoms: _627  and  _629
REMARK  246  A    between atoms: _629  and  _630
REMARK  247  A    between atoms: _629  and  _632
REMARK  248  A    between atoms: _632  and  _633
REMARK  249  A    between atoms: _639  and  _641
REMARK  250  A    between atoms: _641  and  _642
REMARK  251  A    between atoms: _641  and  _644
REMARK  252  A    between atoms: _644  and  _645
REMARK  253  A    between atoms: _645  and  _646
REMARK  254  A    between atoms: _649  and  _651
REMARK  255  A    between atoms: _651  and  _652
REMARK  256  A    between atoms: _651  and  _654
REMARK  257  A    between atoms: _654  and  _655
REMARK  258  A    between atoms: _665  and  _667
REMARK  259  A    between atoms: _667  and  _668
REMARK  260  A    between atoms: _667  and  _670
REMARK  261  A    between atoms: _670  and  _671
REMARK  262  A    between atoms: _674  and  _676
REMARK  263  A    between atoms: _676  and  _677
REMARK  264  A    between atoms: _676  and  _679
REMARK  265  A    between atoms: _679  and  _680
REMARK  266  A    between atoms: _682  and  _684
REMARK  267  A    between atoms: _684  and  _685
REMARK  268  A    between atoms: _684  and  _687
REMARK  269  A    between atoms: _687  and  _688
REMARK  270  A    between atoms: _690  and  _692
REMARK  271  A    between atoms: _692  and  _693
REMARK  272  A    between atoms: _692  and  _695
REMARK  273  A    between atoms: _695  and  _696
REMARK                            x       y       z     vdW  Elec       q    Type
REMARK                         _______ _______ _______ _____ _____    ______ ____
ROOT
ATOM      1  O   HOH     1      -0.544   0.523  36.909  0.00  0.00    +0.000 OA
ENDROOT
TORSDOF 0
REMARK  Name = ../refined-set-2016/3f5j/3f5j_pocket.pdb
REMARK  273 active torsions:
REMARK  status: ('A' for Active; 'I' for Inactive)
REMARK    1  A    between atoms: _1  and  _3
REMARK    2  A    between atoms: _3  and  _4
REMARK    3  A    between atoms: _3  and  _6
REMARK    4  A    between atoms: _9  and  _11
REMARK    5  A    between atoms: _11  and  _12
REMARK    6  A    between atoms: _11  and  _14
REMARK    7  A    between atoms: _14  and  _15
REMARK    8  A    between atoms: _18  and  _20
REMARK    9  A    between atoms: _20  and  _21
REMARK   10  A    between atoms: _20  and  _23
REMARK   11  A    between atoms: _23  and  _24
REMARK   12  A    between atoms: _26  and  _28
REMARK   13  A    between atoms: _28  and  _29
REMARK   14  A    between atoms: _28  and  _31
REMARK   15  A    between atoms: _31  and  _32
REMARK   16  A    between atoms: _32  and  _33
REMARK   17  A    between atoms: _38  and  _40
REMARK   18  A    between atoms: _40  and  _41
REMARK   19  A    between atoms: _40  and  _43
REMARK   20  A    between atoms: _43  and  _44
REMARK   21  A    between atoms: _44  and  _45
REMARK   22  A    between atoms: _45  and  _46
REMARK   23  A    between atoms: _55  and  _57
REMARK   24  A    between atoms: _57  and  _58
REMARK   25  A    between atoms: _57  and  _60
REMARK   26  A    between atoms: _60  and  _61
REMARK   27  A    between atoms: _63  and  _65
REMARK   28  A    between atoms: _65  and  _66
REMARK   29  A    between atoms: _65  and  _68
REMARK   30  A    between atoms: _68  and  _69
REMARK   31  A    between atoms: _74  and  _76
REMARK   32  A    between atoms: _76  and  _77
REMARK   33  A    between atoms: _76  and  _79
REMARK   34  A    between atoms: _79  and  _80
REMARK   35  A    between atoms: _85  and  _87
REMARK   36  A    between atoms: _87  and  _88
REMARK   37  A    between atoms: _87  and  _90
REMARK   38  A    between atoms: _90  and  _91
REMARK   39  A    between atoms: _96  and  _97
REMARK   40  A    between atoms: _99  and  _101
REMARK   41  A    between atoms: _101  and  _102
REMARK   42  A    between atoms: _101  and  _104
REMARK   43  A    between atoms: _104  and  _105
REMARK   44  A    between atoms: _110  and  _112
REMARK   45  A    between atoms: _112  and  _113
REMARK   46  A    between atoms: _112  and  _115
REMARK   47  A    between atoms: _115  and  _116
REMARK   48  A    between atoms: _116  and  _117
REMARK   49  A    between atoms: _122  and  _124
REMARK   50  A    between atoms: _124  and  _125
REMARK   51  A    between atoms: _124  and  _127
REMARK   52  A    between atoms: _127  and  _128
REMARK   53  A    between atoms: _128  and  _129
REMARK   54  A    between atoms: _129  and  _130
REMARK   55  A    between atoms: _139  and  _141
REMARK   56  A    between atoms: _141  and  _142
REMARK   57  A    between atoms: _141  and  _144
REMARK   58  A    between atoms: _144  and  _145
REMARK   59  A    between atoms: _148  and  _150
REMARK   60  A    between atoms: _150  and  _151
REMARK   61  A    between atoms: _150  and  _153
REMARK   62  A    between atoms: _153  and  _154
REMARK   63  A    between atoms: _157  and  _159
REMARK   64  A    between atoms: _159  and  _160
REMARK   65  A    between atoms: _159  and  _162
REMARK   66  A    between atoms: _162  and  _163
REMARK   67  A    between atoms: _166  and  _168
REMARK   68  A    between atoms: _168  and  _169
REMARK   69  A    between atoms: _168  and  _171
REMARK   70  A    between atoms: _171  and  _172
REMARK   71  A    between atoms: _175  and  _177
REMARK   72  A    between atoms: _177  and  _178
REMARK   73  A    between atoms: _177  and  _180
REMARK   74  A    between atoms: _180  and  _181
REMARK   75  A    between atoms: _181  and  _182
REMARK   76  A    between atoms: _187  and  _189
REMARK   77  A    between atoms: _189  and  _190
REMARK   78  A    between atoms: _189  and  _192
REMARK   79  A    between atoms: _192  and  _193
REMARK   80  A    between atoms: _196  and  _198
REMARK   81  A    between atoms: _198  and  _199
REMARK   82  A    between atoms: _198  and  _201
REMARK   83  A    between atoms: _201  and  _202
REMARK   84  A    between atoms: _207  and  _209
REMARK   85  A    between atoms: _209  and  _210
REMARK   86  A    between atoms: _209  and  _212
REMARK   87  A    between atoms: _215  and  _217
REMARK   88  A    between atoms: _217  and  _218
REMARK   89  A    between atoms: _217  and  _220
REMARK   90  A    between atoms: _220  and  _221
REMARK   91  A    between atoms: _224  and  _226
REMARK   92  A    between atoms: _226  and  _227
REMARK   93  A    between atoms: _226  and  _229
REMARK   94  A    between atoms: _229  and  _230
REMARK   95  A    between atoms: _233  and  _235
REMARK   96  A    between atoms: _235  and  _236
REMARK   97  A    between atoms: _235  and  _238
REMARK   98  A    between atoms: _238  and  _239
REMARK   99  A    between atoms: _245  and  _247
REMARK  100  A    between atoms: _247  and  _248
REMARK  101  A    between atoms: _247  and  _250
REMARK  102  A    between atoms: _250  and  _251
REMARK  103  A    between atoms: _256  and  _258
REMARK  104  A    between atoms: _258  and  _259
REMARK  105  A    between atoms: _258  and  _261
REMARK  106  A    between atoms: _261  and  _262
REMARK  107  A    between atoms: _272  and  _274
REMARK  108  A    between atoms: _274  and  _275
REMARK  109  A    between atoms: _274  and  _277
REMARK  110  A    between atoms: _277  and  _278
REMARK  111  A    between atoms: _283  and  _284
REMARK  112  A    between atoms: _286  and  _288
REMARK  113  A    between atoms: _288  and  _289
REMARK  114  A    between atoms: _288  and  _291
REMARK  115  A    between atoms: _291  and  _292
REMARK  116  A    between atoms: _297  and  _299
REMARK  117  A    between atoms: _299  and  _300
REMARK  118  A    between atoms: _299  and  _302
REMARK  119  A    between atoms: _302  and  _303
REMARK  120  A    between atoms: _308  and  _310
REMARK  121  A    between atoms: _310  and  _311
REMARK  122  A    between atoms: _310  and  _313
REMARK  123  A    between atoms: _313  and  _314
REMARK  124  A    between atoms: _314  and  _315
REMARK  125  A    between atoms: _320  and  _322
REMARK  126  A    between atoms: _322  and  _323
REMARK  127  A    between atoms: _322  and  _325
REMARK  128  A    between atoms: _325  and  _326
REMARK  129  A    between atoms: _331  and  _332
REMARK  130  A    between atoms: _334  and  _336
REMARK  131  A    between atoms: _336  and  _337
REMARK  132  A    between atoms: _336  and  _339
REMARK  133  A    between atoms: _339  and  _340
REMARK  134  A    between atoms: _343  and  _345
REMARK  135  A    between atoms: _345  and  _346
REMARK  136  A    between atoms: _349  and  _351
REMARK  137  A    between atoms: _351  and  _352
REMARK  138  A    between atoms: _351  and  _354
REMARK  139  A    between atoms: _354  and  _355
REMARK  140  A    between atoms: _357  and  _359
REMARK  141  A    between atoms: _359  and  _360
REMARK  142  A    between atoms: _359  and  _362
REMARK  143  A    between atoms: _362  and  _363
REMARK  144  A    between atoms: _363  and  _364
REMARK  145  A    between atoms: _366  and  _368
REMARK  146  A    between atoms: _368  and  _369
REMARK  147  A    between atoms: _368  and  _371
REMARK  148  A    between atoms: _371  and  _372
REMARK  149  A    between atoms: _374  and  _376
REMARK  150  A    between atoms: _376  and  _377
REMARK  151  A    between atoms: _376  and  _379
REMARK  152  A    between atoms: _379  and  _380
REMARK  153  A    between atoms: _385  and  _386
REMARK  154  A    between atoms: _388  and  _390
REMARK  155  A    between atoms: _390  and  _391
REMARK  156  A    between atoms: _390  and  _393
REMARK  157  A    between atoms: _393  and  _394
REMARK  158  A    between atoms: _396  and  _398
REMARK  159  A    between atoms: _398  and  _399
REMARK  160  A    between atoms: _402  and  _404
REMARK  161  A    between atoms: _404  and  _405
REMARK  162  A    between atoms: _404  and  _407
REMARK  163  A    between atoms: _407  and  _408
REMARK  164  A    between atoms: _418  and  _420
REMARK  165  A    between atoms: _420  and  _421
REMARK  166  A    between atoms: _420  and  _423
REMARK  167  A    between atoms: _426  and  _428
REMARK  168  A    between atoms: _428  and  _429
REMARK  169  A    between atoms: _428  and  _431
REMARK  170  A    between atoms: _431  and  _432
REMARK  171  A    between atoms: _435  and  _437
REMARK  172  A    between atoms: _437  and  _438
REMARK  173  A    between atoms: _437  and  _440
REMARK  174  A    between atoms: _440  and  _441
REMARK  175  A    between atoms: _446  and  _447
REMARK  176  A    between atoms: _449  and  _451
REMARK  177  A    between atoms: _451  and  _452
REMARK  178  A    between atoms: _451  and  _454
REMARK  179  A    between atoms: _457  and  _459
REMARK  180  A    between atoms: _459  and  _460
REMARK  181  A    between atoms: _459  and  _462
REMARK  182  A    between atoms: _462  and  _463
REMARK  183  A    between atoms: _469  and  _471
REMARK  184  A    between atoms: _471  and  _472
REMARK  185  A    between atoms: _471  and  _474
REMARK  186  A    between atoms: _474  and  _475
REMARK  187  A    between atoms: _475  and  _476
REMARK  188  A    between atoms: _481  and  _483
REMARK  189  A    between atoms: _483  and  _484
REMARK  190  A    between atoms: _483  and  _486
REMARK  191  A    between atoms: _486  and  _487
REMARK  192  A    between atoms: _489  and  _491
REMARK  193  A    between atoms: _491  and  _492
REMARK  194  A    between atoms: _491  and  _494
REMARK  195  A    between atoms: _494  and  _495
REMARK  196  A    between atoms: _500  and  _502
REMARK  197  A    between atoms: _502  and  _503
REMARK  198  A    between atoms: _502  and  _505
REMARK  199  A    between atoms: _505  and  _506
REMARK  200  A    between atoms: _516  and  _518
REMARK  201  A    between atoms: _518  and  _519
REMARK  202  A    between atoms: _518  and  _521
REMARK  203  A    between atoms: _521  and  _522
REMARK  204  A    between atoms: _525  and  _527
REMARK  205  A    between atoms: _527  and  _528
REMARK  206  A    between atoms: _527  and  _530
REMARK  207  A    between atoms: _530  and  _531
REMARK  208  A    between atoms: _536  and  _537
REMARK  209  A    between atoms: _539  and  _541
REMARK  210  A    between atoms: _541  and  _542
REMARK  211  A    between atoms: _541  and  _544
REMARK  212  A    between atoms: _544  and  _545
REMARK  213  A    between atoms: _548  and  _550
REMARK  214  A    between atoms: _550  and  _551
REMARK  215  A    between atoms: _550  and  _553
REMARK  216  A    between atoms: _553  and  _554
REMARK  217  A    between atoms: _554  and  _555
REMARK  218  A    between atoms: _558  and  _560
REMARK  219  A    between atoms: _560  and  _561
REMARK  220  A    between atoms: _560  and  _563
REMARK  221  A    between atoms: _563  and  _564
REMARK  222  A    between atoms: _569  and  _571
REMARK  223  A    between atoms: _571  and  _572
REMARK  224  A    between atoms: _574  and  _576
REMARK  225  A    between atoms: _576  and  _577
REMARK  226  A    between atoms: _576  and  _579
REMARK  227  A    between atoms: _579  and  _580
REMARK  228  A    between atoms: _580  and  _581
REMARK  229  A    between atoms: _583  and  _585
REMARK  230  A    between atoms: _585  and  _586
REMARK  231  A    between atoms: _585  and  _588
REMARK  232  A    between atoms: _588  and  _589
REMARK  233  A    between atoms: _592  and  _594
REMARK  234  A    between atoms: _594  and  _595
REMARK  235  A    between atoms: _594  and  _597
REMARK  236  A    between atoms: _597  and  _598
REMARK  237  A    between atoms: _608  and  _610
REMARK  238  A    between atoms: _610  and  _611
REMARK  239  A    between atoms: _610  and  _613
REMARK  240  A    between atoms: _613  and  _614
REMARK  241  A    between atoms: _616  and  _618
REMARK  242  A    between atoms: _618  and  _619
REMARK  243  A    between atoms: _618  and  _621
REMARK  244  A    between atoms: _621  and  _622
REMARK  245  A    between atoms: _627  and  _629
REMARK  246  A    between atoms: _629  and  _630
REMARK  247  A    between atoms: _629  and  _632
REMARK  248  A    between atoms: _632  and  _633
REMARK  249  A    between atoms: _639  and  _641
REMARK  250  A    between atoms: _641  and  _642
REMARK  251  A    between atoms: _641  and  _644
REMARK  252  A    between atoms: _644  and  _645
REMARK  253  A    between atoms: _645  and  _646
REMARK  254  A    between atoms: _649  and  _651
REMARK  255  A    between atoms: _651  and  _652
REMARK  256  A    between atoms: _651  and  _654
REMARK  257  A    between atoms: _654  and  _655
REMARK  258  A    between atoms: _665  and  _667
REMARK  259  A    between atoms: _667  and  _668
REMARK  260  A    between atoms: _667  and  _670
REMARK  261  A    between atoms: _670  and  _671
REMARK  262  A    between atoms: _674  and  _676
REMARK  263  A    between atoms: _676  and  _677
REMARK  264  A    between atoms: _676  and  _679
REMARK  265  A    between atoms: _679  and  _680
REMARK  266  A    between atoms: _682  and  _684
REMARK  267  A    between atoms: _684  and  _685
REMARK  268  A    between atoms: _684  and  _687
REMARK  269  A    between atoms: _687  and  _688
REMARK  270  A    between atoms: _690  and  _692
REMARK  271  A    between atoms: _692  and  _693
REMARK  272  A    between atoms: _692  and  _695
REMARK  273  A    between atoms: _695  and  _696
REMARK                            x       y       z     vdW  Elec       q    Type
REMARK                         _______ _______ _______ _____ _____    ______ ____
ROOT
ATOM      1  O   HOH     1      -0.585  -5.397  49.639  0.00  0.00    +0.000 OA
ENDROOT
TORSDOF 0
REMARK  Name = ../refined-set-2016/3f5j/3f5j_pocket.pdb
REMARK  273 active torsions:
REMARK  status: ('A' for Active; 'I' for Inactive)
REMARK    1  A    between atoms: _1  and  _3
REMARK    2  A    between atoms: _3  and  _4
REMARK    3  A    between atoms: _3  and  _6
REMARK    4  A    between atoms: _9  and  _11
REMARK    5  A    between atoms: _11  and  _12
REMARK    6  A    between atoms: _11  and  _14
REMARK    7  A    between atoms: _14  and  _15
REMARK    8  A    between atoms: _18  and  _20
REMARK    9  A    between atoms: _20  and  _21
REMARK   10  A    between atoms: _20  and  _23
REMARK   11  A    between atoms: _23  and  _24
REMARK   12  A    between atoms: _26  and  _28
REMARK   13  A    between atoms: _28  and  _29
REMARK   14  A    between atoms: _28  and  _31
REMARK   15  A    between atoms: _31  and  _32
REMARK   16  A    between atoms: _32  and  _33
REMARK   17  A    between atoms: _38  and  _40
REMARK   18  A    between atoms: _40  and  _41
REMARK   19  A    between atoms: _40  and  _43
REMARK   20  A    between atoms: _43  and  _44
REMARK   21  A    between atoms: _44  and  _45
REMARK   22  A    between atoms: _45  and  _46
REMARK   23  A    between atoms: _55  and  _57
REMARK   24  A    between atoms: _57  and  _58
REMARK   25  A    between atoms: _57  and  _60
REMARK   26  A    between atoms: _60  and  _61
REMARK   27  A    between atoms: _63  and  _65
REMARK   28  A    between atoms: _65  and  _66
REMARK   29  A    between atoms: _65  and  _68
REMARK   30  A    between atoms: _68  and  _69
REMARK   31  A    between atoms: _74  and  _76
REMARK   32  A    between atoms: _76  and  _77
REMARK   33  A    between atoms: _76  and  _79
REMARK   34  A    between atoms: _79  and  _80
REMARK   35  A    between atoms: _85  and  _87
REMARK   36  A    between atoms: _87  and  _88
REMARK   37  A    between atoms: _87  and  _90
REMARK   38  A    between atoms: _90  and  _91
REMARK   39  A    between atoms: _96  and  _97
REMARK   40  A    between atoms: _99  and  _101
REMARK   41  A    between atoms: _101  and  _102
REMARK   42  A    between atoms: _101  and  _104
REMARK   43  A    between atoms: _104  and  _105
REMARK   44  A    between atoms: _110  and  _112
REMARK   45  A    between atoms: _112  and  _113
REMARK   46  A    between atoms: _112  and  _115
REMARK   47  A    between atoms: _115  and  _116
REMARK   48  A    between atoms: _116  and  _117
REMARK   49  A    between atoms: _122  and  _124
REMARK   50  A    between atoms: _124  and  _125
REMARK   51  A    between atoms: _124  and  _127
REMARK   52  A    between atoms: _127  and  _128
REMARK   53  A    between atoms: _128  and  _129
REMARK   54  A    between atoms: _129  and  _130
REMARK   55  A    between atoms: _139  and  _141
REMARK   56  A    between atoms: _141  and  _142
REMARK   57  A    between atoms: _141  and  _144
REMARK   58  A    between atoms: _144  and  _145
REMARK   59  A    between atoms: _148  and  _150
REMARK   60  A    between atoms: _150  and  _151
REMARK   61  A    between atoms: _150  and  _153
REMARK   62  A    between atoms: _153  and  _154
REMARK   63  A    between atoms: _157  and  _159
REMARK   64  A    between atoms: _159  and  _160
REMARK   65  A    between atoms: _159  and  _162
REMARK   66  A    between atoms: _162  and  _163
REMARK   67  A    between atoms: _166  and  _168
REMARK   68  A    between atoms: _168  and  _169
REMARK   69  A    between atoms: _168  and  _171
REMARK   70  A    between atoms: _171  and  _172
REMARK   71  A    between atoms: _175  and  _177
REMARK   72  A    between atoms: _177  and  _178
REMARK   73  A    between atoms: _177  and  _180
REMARK   74  A    between atoms: _180  and  _181
REMARK   75  A    between atoms: _181  and  _182
REMARK   76  A    between atoms: _187  and  _189
REMARK   77  A    between atoms: _189  and  _190
REMARK   78  A    between atoms: _189  and  _192
REMARK   79  A    between atoms: _192  and  _193
REMARK   80  A    between atoms: _196  and  _198
REMARK   81  A    between atoms: _198  and  _199
REMARK   82  A    between atoms: _198  and  _201
REMARK   83  A    between atoms: _201  and  _202
REMARK   84  A    between atoms: _207  and  _209
REMARK   85  A    between atoms: _209  and  _210
REMARK   86  A    between atoms: _209  and  _212
REMARK   87  A    between atoms: _215  and  _217
REMARK   88  A    between atoms: _217  and  _218
REMARK   89  A    between atoms: _217  and  _220
REMARK   90  A    between atoms: _220  and  _221
REMARK   91  A    between atoms: _224  and  _226
REMARK   92  A    between atoms: _226  and  _227
REMARK   93  A    between atoms: _226  and  _229
REMARK   94  A    between atoms: _229  and  _230
REMARK   95  A    between atoms: _233  and  _235
REMARK   96  A    between atoms: _235  and  _236
REMARK   97  A    between atoms: _235  and  _238
REMARK   98  A    between atoms: _238  and  _239
REMARK   99  A    between atoms: _245  and  _247
REMARK  100  A    between atoms: _247  and  _248
REMARK  101  A    between atoms: _247  and  _250
REMARK  102  A    between atoms: _250  and  _251
REMARK  103  A    between atoms: _256  and  _258
REMARK  104  A    between atoms: _258  and  _259
REMARK  105  A    between atoms: _258  and  _261
REMARK  106  A    between atoms: _261  and  _262
REMARK  107  A    between atoms: _272  and  _274
REMARK  108  A    between atoms: _274  and  _275
REMARK  109  A    between atoms: _274  and  _277
REMARK  110  A    between atoms: _277  and  _278
REMARK  111  A    between atoms: _283  and  _284
REMARK  112  A    between atoms: _286  and  _288
REMARK  113  A    between atoms: _288  and  _289
REMARK  114  A    between atoms: _288  and  _291
REMARK  115  A    between atoms: _291  and  _292
REMARK  116  A    between atoms: _297  and  _299
REMARK  117  A    between atoms: _299  and  _300
REMARK  118  A    between atoms: _299  and  _302
REMARK  119  A    between atoms: _302  and  _303
REMARK  120  A    between atoms: _308  and  _310
REMARK  121  A    between atoms: _310  and  _311
REMARK  122  A    between atoms: _310  and  _313
REMARK  123  A    between atoms: _313  and  _314
REMARK  124  A    between atoms: _314  and  _315
REMARK  125  A    between atoms: _320  and  _322
REMARK  126  A    between atoms: _322  and  _323
REMARK  127  A    between atoms: _322  and  _325
REMARK  128  A    between atoms: _325  and  _326
REMARK  129  A    between atoms: _331  and  _332
REMARK  130  A    between atoms: _334  and  _336
REMARK  131  A    between atoms: _336  and  _337
REMARK  132  A    between atoms: _336  and  _339
REMARK  133  A    between atoms: _339  and  _340
REMARK  134  A    between atoms: _343  and  _345
REMARK  135  A    between atoms: _345  and  _346
REMARK  136  A    between atoms: _349  and  _351
REMARK  137  A    between atoms: _351  and  _352
REMARK  138  A    between atoms: _351  and  _354
REMARK  139  A    between atoms: _354  and  _355
REMARK  140  A    between atoms: _357  and  _359
REMARK  141  A    between atoms: _359  and  _360
REMARK  142  A    between atoms: _359  and  _362
REMARK  143  A    between atoms: _362  and  _363
REMARK  144  A    between atoms: _363  and  _364
REMARK  145  A    between atoms: _366  and  _368
REMARK  146  A    between atoms: _368  and  _369
REMARK  147  A    between atoms: _368  and  _371
REMARK  148  A    between atoms: _371  and  _372
REMARK  149  A    between atoms: _374  and  _376
REMARK  150  A    between atoms: _376  and  _377
REMARK  151  A    between atoms: _376  and  _379
REMARK  152  A    between atoms: _379  and  _380
REMARK  153  A    between atoms: _385  and  _386
REMARK  154  A    between atoms: _388  and  _390
REMARK  155  A    between atoms: _390  and  _391
REMARK  156  A    between atoms: _390  and  _393
REMARK  157  A    between atoms: _393  and  _394
REMARK  158  A    between atoms: _396  and  _398
REMARK  159  A    between atoms: _398  and  _399
REMARK  160  A    between atoms: _402  and  _404
REMARK  161  A    between atoms: _404  and  _405
REMARK  162  A    between atoms: _404  and  _407
REMARK  163  A    between atoms: _407  and  _408
REMARK  164  A    between atoms: _418  and  _420
REMARK  165  A    between atoms: _420  and  _421
REMARK  166  A    between atoms: _420  and  _423
REMARK  167  A    between atoms: _426  and  _428
REMARK  168  A    between atoms: _428  and  _429
REMARK  169  A    between atoms: _428  and  _431
REMARK  170  A    between atoms: _431  and  _432
REMARK  171  A    between atoms: _435  and  _437
REMARK  172  A    between atoms: _437  and  _438
REMARK  173  A    between atoms: _437  and  _440
REMARK  174  A    between atoms: _440  and  _441
REMARK  175  A    between atoms: _446  and  _447
REMARK  176  A    between atoms: _449  and  _451
REMARK  177  A    between atoms: _451  and  _452
REMARK  178  A    between atoms: _451  and  _454
REMARK  179  A    between atoms: _457  and  _459
REMARK  180  A    between atoms: _459  and  _460
REMARK  181  A    between atoms: _459  and  _462
REMARK  182  A    between atoms: _462  and  _463
REMARK  183  A    between atoms: _469  and  _471
REMARK  184  A    between atoms: _471  and  _472
REMARK  185  A    between atoms: _471  and  _474
REMARK  186  A    between atoms: _474  and  _475
REMARK  187  A    between atoms: _475  and  _476
REMARK  188  A    between atoms: _481  and  _483
REMARK  189  A    between atoms: _483  and  _484
REMARK  190  A    between atoms: _483  and  _486
REMARK  191  A    between atoms: _486  and  _487
REMARK  192  A    between atoms: _489  and  _491
REMARK  193  A    between atoms: _491  and  _492
REMARK  194  A    between atoms: _491  and  _494
REMARK  195  A    between atoms: _494  and  _495
REMARK  196  A    between atoms: _500  and  _502
REMARK  197  A    between atoms: _502  and  _503
REMARK  198  A    between atoms: _502  and  _505
REMARK  199  A    between atoms: _505  and  _506
REMARK  200  A    between atoms: _516  and  _518
REMARK  201  A    between atoms: _518  and  _519
REMARK  202  A    between atoms: _518  and  _521
REMARK  203  A    between atoms: _521  and  _522
REMARK  204  A    between atoms: _525  and  _527
REMARK  205  A    between atoms: _527  and  _528
REMARK  206  A    between atoms: _527  and  _530
REMARK  207  A    between atoms: _530  and  _531
REMARK  208  A    between atoms: _536  and  _537
REMARK  209  A    between atoms: _539  and  _541
REMARK  210  A    between atoms: _541  and  _542
REMARK  211  A    between atoms: _541  and  _544
REMARK  212  A    between atoms: _544  and  _545
REMARK  213  A    between atoms: _548  and  _550
REMARK  214  A    between atoms: _550  and  _551
REMARK  215  A    between atoms: _550  and  _553
REMARK  216  A    between atoms: _553  and  _554
REMARK  217  A    between atoms: _554  and  _555
REMARK  218  A    between atoms: _558  and  _560
REMARK  219  A    between atoms: _560  and  _561
REMARK  220  A    between atoms: _560  and  _563
REMARK  221  A    between atoms: _563  and  _564
REMARK  222  A    between atoms: _569  and  _571
REMARK  223  A    between atoms: _571  and  _572
REMARK  224  A    between atoms: _574  and  _576
REMARK  225  A    between atoms: _576  and  _577
REMARK  226  A    between atoms: _576  and  _579
REMARK  227  A    between atoms: _579  and  _580
REMARK  228  A    between atoms: _580  and  _581
REMARK  229  A    between atoms: _583  and  _585
REMARK  230  A    between atoms: _585  and  _586
REMARK  231  A    between atoms: _585  and  _588
REMARK  232  A    between atoms: _588  and  _589
REMARK  233  A    between atoms: _592  and  _594
REMARK  234  A    between atoms: _594  and  _595
REMARK  235  A    between atoms: _594  and  _597
REMARK  236  A    between atoms: _597  and  _598
REMARK  237  A    between atoms: _608  and  _610
REMARK  238  A    between atoms: _610  and  _611
REMARK  239  A    between atoms: _610  and  _613
REMARK  240  A    between atoms: _613  and  _614
REMARK  241  A    between atoms: _616  and  _618
REMARK  242  A    between atoms: _618  and  _619
REMARK  243  A    between atoms: _618  and  _621
REMARK  244  A    between atoms: _621  and  _622
REMARK  245  A    between atoms: _627  and  _629
REMARK  246  A    between atoms: _629  and  _630
REMARK  247  A    between atoms: _629  and  _632
REMARK  248  A    between atoms: _632  and  _633
REMARK  249  A    between atoms: _639  and  _641
REMARK  250  A    between atoms: _641  and  _642
REMARK  251  A    between atoms: _641  and  _644
REMARK  252  A    between atoms: _644  and  _645
REMARK  253  A    between atoms: _645  and  _646
REMARK  254  A    between atoms: _649  and  _651
REMARK  255  A    between atoms: _651  and  _652
REMARK  256  A    between atoms: _651  and  _654
REMARK  257  A    between atoms: _654  and  _655
REMARK  258  A    between atoms: _665  and  _667
REMARK  259  A    between atoms: _667  and  _668
REMARK  260  A    between atoms: _667  and  _670
REMARK  261  A    between atoms: _670  and  _671
REMARK  262  A    between atoms: _674  and  _676
REMARK  263  A    between atoms: _676  and  _677
REMARK  264  A    between atoms: _676  and  _679
REMARK  265  A    between atoms: _679  and  _680
REMARK  266  A    between atoms: _682  and  _684
REMARK  267  A    between atoms: _684  and  _685
REMARK  268  A    between atoms: _684  and  _687
REMARK  269  A    between atoms: _687  and  _688
REMARK  270  A    between atoms: _690  and  _692
REMARK  271  A    between atoms: _692  and  _693
REMARK  272  A    between atoms: _692  and  _695
REMARK  273  A    between atoms: _695  and  _696
REMARK                            x       y       z     vdW  Elec       q    Type
REMARK                         _______ _______ _______ _____ _____    ______ ____
ROOT
ATOM      1  O   HOH     1      -1.833   0.344  56.720  0.00  0.00    +0.000 OA
ENDROOT
TORSDOF 0
REMARK  Name = ../refined-set-2016/3f5j/3f5j_pocket.pdb
REMARK  273 active torsions:
REMARK  status: ('A' for Active; 'I' for Inactive)
REMARK    1  A    between atoms: _1  and  _3
REMARK    2  A    between atoms: _3  and  _4
REMARK    3  A    between atoms: _3  and  _6
REMARK    4  A    between atoms: _9  and  _11
REMARK    5  A    between atoms: _11  and  _12
REMARK    6  A    between atoms: _11  and  _14
REMARK    7  A    between atoms: _14  and  _15
REMARK    8  A    between atoms: _18  and  _20
REMARK    9  A    between atoms: _20  and  _21
REMARK   10  A    between atoms: _20  and  _23
REMARK   11  A    between atoms: _23  and  _24
REMARK   12  A    between atoms: _26  and  _28
REMARK   13  A    between atoms: _28  and  _29
REMARK   14  A    between atoms: _28  and  _31
REMARK   15  A    between atoms: _31  and  _32
REMARK   16  A    between atoms: _32  and  _33
REMARK   17  A    between atoms: _38  and  _40
REMARK   18  A    between atoms: _40  and  _41
REMARK   19  A    between atoms: _40  and  _43
REMARK   20  A    between atoms: _43  and  _44
REMARK   21  A    between atoms: _44  and  _45
REMARK   22  A    between atoms: _45  and  _46
REMARK   23  A    between atoms: _55  and  _57
REMARK   24  A    between atoms: _57  and  _58
REMARK   25  A    between atoms: _57  and  _60
REMARK   26  A    between atoms: _60  and  _61
REMARK   27  A    between atoms: _63  and  _65
REMARK   28  A    between atoms: _65  and  _66
REMARK   29  A    between atoms: _65  and  _68
REMARK   30  A    between atoms: _68  and  _69
REMARK   31  A    between atoms: _74  and  _76
REMARK   32  A    between atoms: _76  and  _77
REMARK   33  A    between atoms: _76  and  _79
REMARK   34  A    between atoms: _79  and  _80
REMARK   35  A    between atoms: _85  and  _87
REMARK   36  A    between atoms: _87  and  _88
REMARK   37  A    between atoms: _87  and  _90
REMARK   38  A    between atoms: _90  and  _91
REMARK   39  A    between atoms: _96  and  _97
REMARK   40  A    between atoms: _99  and  _101
REMARK   41  A    between atoms: _101  and  _102
REMARK   42  A    between atoms: _101  and  _104
REMARK   43  A    between atoms: _104  and  _105
REMARK   44  A    between atoms: _110  and  _112
REMARK   45  A    between atoms: _112  and  _113
REMARK   46  A    between atoms: _112  and  _115
REMARK   47  A    between atoms: _115  and  _116
REMARK   48  A    between atoms: _116  and  _117
REMARK   49  A    between atoms: _122  and  _124
REMARK   50  A    between atoms: _124  and  _125
REMARK   51  A    between atoms: _124  and  _127
REMARK   52  A    between atoms: _127  and  _128
REMARK   53  A    between atoms: _128  and  _129
REMARK   54  A    between atoms: _129  and  _130
REMARK   55  A    between atoms: _139  and  _141
REMARK   56  A    between atoms: _141  and  _142
REMARK   57  A    between atoms: _141  and  _144
REMARK   58  A    between atoms: _144  and  _145
REMARK   59  A    between atoms: _148  and  _150
REMARK   60  A    between atoms: _150  and  _151
REMARK   61  A    between atoms: _150  and  _153
REMARK   62  A    between atoms: _153  and  _154
REMARK   63  A    between atoms: _157  and  _159
REMARK   64  A    between atoms: _159  and  _160
REMARK   65  A    between atoms: _159  and  _162
REMARK   66  A    between atoms: _162  and  _163
REMARK   67  A    between atoms: _166  and  _168
REMARK   68  A    between atoms: _168  and  _169
REMARK   69  A    between atoms: _168  and  _171
REMARK   70  A    between atoms: _171  and  _172
REMARK   71  A    between atoms: _175  and  _177
REMARK   72  A    between atoms: _177  and  _178
REMARK   73  A    between atoms: _177  and  _180
REMARK   74  A    between atoms: _180  and  _181
REMARK   75  A    between atoms: _181  and  _182
REMARK   76  A    between atoms: _187  and  _189
REMARK   77  A    between atoms: _189  and  _190
REMARK   78  A    between atoms: _189  and  _192
REMARK   79  A    between atoms: _192  and  _193
REMARK   80  A    between atoms: _196  and  _198
REMARK   81  A    between atoms: _198  and  _199
REMARK   82  A    between atoms: _198  and  _201
REMARK   83  A    between atoms: _201  and  _202
REMARK   84  A    between atoms: _207  and  _209
REMARK   85  A    between atoms: _209  and  _210
REMARK   86  A    between atoms: _209  and  _212
REMARK   87  A    between atoms: _215  and  _217
REMARK   88  A    between atoms: _217  and  _218
REMARK   89  A    between atoms: _217  and  _220
REMARK   90  A    between atoms: _220  and  _221
REMARK   91  A    between atoms: _224  and  _226
REMARK   92  A    between atoms: _226  and  _227
REMARK   93  A    between atoms: _226  and  _229
REMARK   94  A    between atoms: _229  and  _230
REMARK   95  A    between atoms: _233  and  _235
REMARK   96  A    between atoms: _235  and  _236
REMARK   97  A    between atoms: _235  and  _238
REMARK   98  A    between atoms: _238  and  _239
REMARK   99  A    between atoms: _245  and  _247
REMARK  100  A    between atoms: _247  and  _248
REMARK  101  A    between atoms: _247  and  _250
REMARK  102  A    between atoms: _250  and  _251
REMARK  103  A    between atoms: _256  and  _258
REMARK  104  A    between atoms: _258  and  _259
REMARK  105  A    between atoms: _258  and  _261
REMARK  106  A    between atoms: _261  and  _262
REMARK  107  A    between atoms: _272  and  _274
REMARK  108  A    between atoms: _274  and  _275
REMARK  109  A    between atoms: _274  and  _277
REMARK  110  A    between atoms: _277  and  _278
REMARK  111  A    between atoms: _283  and  _284
REMARK  112  A    between atoms: _286  and  _288
REMARK  113  A    between atoms: _288  and  _289
REMARK  114  A    between atoms: _288  and  _291
REMARK  115  A    between atoms: _291  and  _292
REMARK  116  A    between atoms: _297  and  _299
REMARK  117  A    between atoms: _299  and  _300
REMARK  118  A    between atoms: _299  and  _302
REMARK  119  A    between atoms: _302  and  _303
REMARK  120  A    between atoms: _308  and  _310
REMARK  121  A    between atoms: _310  and  _311
REMARK  122  A    between atoms: _310  and  _313
REMARK  123  A    between atoms: _313  and  _314
REMARK  124  A    between atoms: _314  and  _315
REMARK  125  A    between atoms: _320  and  _322
REMARK  126  A    between atoms: _322  and  _323
REMARK  127  A    between atoms: _322  and  _325
REMARK  128  A    between atoms: _325  and  _326
REMARK  129  A    between atoms: _331  and  _332
REMARK  130  A    between atoms: _334  and  _336
REMARK  131  A    between atoms: _336  and  _337
REMARK  132  A    between atoms: _336  and  _339
REMARK  133  A    between atoms: _339  and  _340
REMARK  134  A    between atoms: _343  and  _345
REMARK  135  A    between atoms: _345  and  _346
REMARK  136  A    between atoms: _349  and  _351
REMARK  137  A    between atoms: _351  and  _352
REMARK  138  A    between atoms: _351  and  _354
REMARK  139  A    between atoms: _354  and  _355
REMARK  140  A    between atoms: _357  and  _359
REMARK  141  A    between atoms: _359  and  _360
REMARK  142  A    between atoms: _359  and  _362
REMARK  143  A    between atoms: _362  and  _363
REMARK  144  A    between atoms: _363  and  _364
REMARK  145  A    between atoms: _366  and  _368
REMARK  146  A    between atoms: _368  and  _369
REMARK  147  A    between atoms: _368  and  _371
REMARK  148  A    between atoms: _371  and  _372
REMARK  149  A    between atoms: _374  and  _376
REMARK  150  A    between atoms: _376  and  _377
REMARK  151  A    between atoms: _376  and  _379
REMARK  152  A    between atoms: _379  and  _380
REMARK  153  A    between atoms: _385  and  _386
REMARK  154  A    between atoms: _388  and  _390
REMARK  155  A    between atoms: _390  and  _391
REMARK  156  A    between atoms: _390  and  _393
REMARK  157  A    between atoms: _393  and  _394
REMARK  158  A    between atoms: _396  and  _398
REMARK  159  A    between atoms: _398  and  _399
REMARK  160  A    between atoms: _402  and  _404
REMARK  161  A    between atoms: _404  and  _405
REMARK  162  A    between atoms: _404  and  _407
REMARK  163  A    between atoms: _407  and  _408
REMARK  164  A    between atoms: _418  and  _420
REMARK  165  A    between atoms: _420  and  _421
REMARK  166  A    between atoms: _420  and  _423
REMARK  167  A    between atoms: _426  and  _428
REMARK  168  A    between atoms: _428  and  _429
REMARK  169  A    between atoms: _428  and  _431
REMARK  170  A    between atoms: _431  and  _432
REMARK  171  A    between atoms: _435  and  _437
REMARK  172  A    between atoms: _437  and  _438
REMARK  173  A    between atoms: _437  and  _440
REMARK  174  A    between atoms: _440  and  _441
REMARK  175  A    between atoms: _446  and  _447
REMARK  176  A    between atoms: _449  and  _451
REMARK  177  A    between atoms: _451  and  _452
REMARK  178  A    between atoms: _451  and  _454
REMARK  179  A    between atoms: _457  and  _459
REMARK  180  A    between atoms: _459  and  _460
REMARK  181  A    between atoms: _459  and  _462
REMARK  182  A    between atoms: _462  and  _463
REMARK  183  A    between atoms: _469  and  _471
REMARK  184  A    between atoms: _471  and  _472
REMARK  185  A    between atoms: _471  and  _474
REMARK  186  A    between atoms: _474  and  _475
REMARK  187  A    between atoms: _475  and  _476
REMARK  188  A    between atoms: _481  and  _483
REMARK  189  A    between atoms: _483  and  _484
REMARK  190  A    between atoms: _483  and  _486
REMARK  191  A    between atoms: _486  and  _487
REMARK  192  A    between atoms: _489  and  _491
REMARK  193  A    between atoms: _491  and  _492
REMARK  194  A    between atoms: _491  and  _494
REMARK  195  A    between atoms: _494  and  _495
REMARK  196  A    between atoms: _500  and  _502
REMARK  197  A    between atoms: _502  and  _503
REMARK  198  A    between atoms: _502  and  _505
REMARK  199  A    between atoms: _505  and  _506
REMARK  200  A    between atoms: _516  and  _518
REMARK  201  A    between atoms: _518  and  _519
REMARK  202  A    between atoms: _518  and  _521
REMARK  203  A    between atoms: _521  and  _522
REMARK  204  A    between atoms: _525  and  _527
REMARK  205  A    between atoms: _527  and  _528
REMARK  206  A    between atoms: _527  and  _530
REMARK  207  A    between atoms: _530  and  _531
REMARK  208  A    between atoms: _536  and  _537
REMARK  209  A    between atoms: _539  and  _541
REMARK  210  A    between atoms: _541  and  _542
REMARK  211  A    between atoms: _541  and  _544
REMARK  212  A    between atoms: _544  and  _545
REMARK  213  A    between atoms: _548  and  _550
REMARK  214  A    between atoms: _550  and  _551
REMARK  215  A    between atoms: _550  and  _553
REMARK  216  A    between atoms: _553  and  _554
REMARK  217  A    between atoms: _554  and  _555
REMARK  218  A    between atoms: _558  and  _560
REMARK  219  A    between atoms: _560  and  _561
REMARK  220  A    between atoms: _560  and  _563
REMARK  221  A    between atoms: _563  and  _564
REMARK  222  A    between atoms: _569  and  _571
REMARK  223  A    between atoms: _571  and  _572
REMARK  224  A    between atoms: _574  and  _576
REMARK  225  A    between atoms: _576  and  _577
REMARK  226  A    between atoms: _576  and  _579
REMARK  227  A    between atoms: _579  and  _580
REMARK  228  A    between atoms: _580  and  _581
REMARK  229  A    between atoms: _583  and  _585
REMARK  230  A    between atoms: _585  and  _586
REMARK  231  A    between atoms: _585  and  _588
REMARK  232  A    between atoms: _588  and  _589
REMARK  233  A    between atoms: _592  and  _594
REMARK  234  A    between atoms: _594  and  _595
REMARK  235  A    between atoms: _594  and  _597
REMARK  236  A    between atoms: _597  and  _598
REMARK  237  A    between atoms: _608  and  _610
REMARK  238  A    between atoms: _610  and  _611
REMARK  239  A    between atoms: _610  and  _613
REMARK  240  A    between atoms: _613  and  _614
REMARK  241  A    between atoms: _616  and  _618
REMARK  242  A    between atoms: _618  and  _619
REMARK  243  A    between atoms: _618  and  _621
REMARK  244  A    between atoms: _621  and  _622
REMARK  245  A    between atoms: _627  and  _629
REMARK  246  A    between atoms: _629  and  _630
REMARK  247  A    between atoms: _629  and  _632
REMARK  248  A    between atoms: _632  and  _633
REMARK  249  A    between atoms: _639  and  _641
REMARK  250  A    between atoms: _641  and  _642
REMARK  251  A    between atoms: _641  and  _644
REMARK  252  A    between atoms: _644  and  _645
REMARK  253  A    between atoms: _645  and  _646
REMARK  254  A    between atoms: _649  and  _651
REMARK  255  A    between atoms: _651  and  _652
REMARK  256  A    between atoms: _651  and  _654
REMARK  257  A    between atoms: _654  and  _655
REMARK  258  A    between atoms: _665  and  _667
REMARK  259  A    between atoms: _667  and  _668
REMARK  260  A    between atoms: _667  and  _670
REMARK  261  A    between atoms: _670  and  _671
REMARK  262  A    between atoms: _674  and  _676
REMARK  263  A    between atoms: _676  and  _677
REMARK  264  A    between atoms: _676  and  _679
REMARK  265  A    between atoms: _679  and  _680
REMARK  266  A    between atoms: _682  and  _684
REMARK  267  A    between atoms: _684  and  _685
REMARK  268  A    between atoms: _684  and  _687
REMARK  269  A    between atoms: _687  and  _688
REMARK  270  A    between atoms: _690  and  _692
REMARK  271  A    between atoms: _692  and  _693
REMARK  272  A    between atoms: _692  and  _695
REMARK  273  A    between atoms: _695  and  _696
REMARK                            x       y       z     vdW  Elec       q    Type
REMARK                         _______ _______ _______ _____ _____    ______ ____
ROOT
ATOM      1  O   HOH     1       2.160  -4.172  57.498  0.00  0.00    +0.000 OA
ENDROOT
TORSDOF 0
REMARK  Name = ../refined-set-2016/3f5j/3f5j_pocket.pdb
REMARK  273 active torsions:
REMARK  status: ('A' for Active; 'I' for Inactive)
REMARK    1  A    between atoms: _1  and  _3
REMARK    2  A    between atoms: _3  and  _4
REMARK    3  A    between atoms: _3  and  _6
REMARK    4  A    between atoms: _9  and  _11
REMARK    5  A    between atoms: _11  and  _12
REMARK    6  A    between atoms: _11  and  _14
REMARK    7  A    between atoms: _14  and  _15
REMARK    8  A    between atoms: _18  and  _20
REMARK    9  A    between atoms: _20  and  _21
REMARK   10  A    between atoms: _20  and  _23
REMARK   11  A    between atoms: _23  and  _24
REMARK   12  A    between atoms: _26  and  _28
REMARK   13  A    between atoms: _28  and  _29
REMARK   14  A    between atoms: _28  and  _31
REMARK   15  A    between atoms: _31  and  _32
REMARK   16  A    between atoms: _32  and  _33
REMARK   17  A    between atoms: _38  and  _40
REMARK   18  A    between atoms: _40  and  _41
REMARK   19  A    between atoms: _40  and  _43
REMARK   20  A    between atoms: _43  and  _44
REMARK   21  A    between atoms: _44  and  _45
REMARK   22  A    between atoms: _45  and  _46
REMARK   23  A    between atoms: _55  and  _57
REMARK   24  A    between atoms: _57  and  _58
REMARK   25  A    between atoms: _57  and  _60
REMARK   26  A    between atoms: _60  and  _61
REMARK   27  A    between atoms: _63  and  _65
REMARK   28  A    between atoms: _65  and  _66
REMARK   29  A    between atoms: _65  and  _68
REMARK   30  A    between atoms: _68  and  _69
REMARK   31  A    between atoms: _74  and  _76
REMARK   32  A    between atoms: _76  and  _77
REMARK   33  A    between atoms: _76  and  _79
REMARK   34  A    between atoms: _79  and  _80
REMARK   35  A    between atoms: _85  and  _87
REMARK   36  A    between atoms: _87  and  _88
REMARK   37  A    between atoms: _87  and  _90
REMARK   38  A    between atoms: _90  and  _91
REMARK   39  A    between atoms: _96  and  _97
REMARK   40  A    between atoms: _99  and  _101
REMARK   41  A    between atoms: _101  and  _102
REMARK   42  A    between atoms: _101  and  _104
REMARK   43  A    between atoms: _104  and  _105
REMARK   44  A    between atoms: _110  and  _112
REMARK   45  A    between atoms: _112  and  _113
REMARK   46  A    between atoms: _112  and  _115
REMARK   47  A    between atoms: _115  and  _116
REMARK   48  A    between atoms: _116  and  _117
REMARK   49  A    between atoms: _122  and  _124
REMARK   50  A    between atoms: _124  and  _125
REMARK   51  A    between atoms: _124  and  _127
REMARK   52  A    between atoms: _127  and  _128
REMARK   53  A    between atoms: _128  and  _129
REMARK   54  A    between atoms: _129  and  _130
REMARK   55  A    between atoms: _139  and  _141
REMARK   56  A    between atoms: _141  and  _142
REMARK   57  A    between atoms: _141  and  _144
REMARK   58  A    between atoms: _144  and  _145
REMARK   59  A    between atoms: _148  and  _150
REMARK   60  A    between atoms: _150  and  _151
REMARK   61  A    between atoms: _150  and  _153
REMARK   62  A    between atoms: _153  and  _154
REMARK   63  A    between atoms: _157  and  _159
REMARK   64  A    between atoms: _159  and  _160
REMARK   65  A    between atoms: _159  and  _162
REMARK   66  A    between atoms: _162  and  _163
REMARK   67  A    between atoms: _166  and  _168
REMARK   68  A    between atoms: _168  and  _169
REMARK   69  A    between atoms: _168  and  _171
REMARK   70  A    between atoms: _171  and  _172
REMARK   71  A    between atoms: _175  and  _177
REMARK   72  A    between atoms: _177  and  _178
REMARK   73  A    between atoms: _177  and  _180
REMARK   74  A    between atoms: _180  and  _181
REMARK   75  A    between atoms: _181  and  _182
REMARK   76  A    between atoms: _187  and  _189
REMARK   77  A    between atoms: _189  and  _190
REMARK   78  A    between atoms: _189  and  _192
REMARK   79  A    between atoms: _192  and  _193
REMARK   80  A    between atoms: _196  and  _198
REMARK   81  A    between atoms: _198  and  _199
REMARK   82  A    between atoms: _198  and  _201
REMARK   83  A    between atoms: _201  and  _202
REMARK   84  A    between atoms: _207  and  _209
REMARK   85  A    between atoms: _209  and  _210
REMARK   86  A    between atoms: _209  and  _212
REMARK   87  A    between atoms: _215  and  _217
REMARK   88  A    between atoms: _217  and  _218
REMARK   89  A    between atoms: _217  and  _220
REMARK   90  A    between atoms: _220  and  _221
REMARK   91  A    between atoms: _224  and  _226
REMARK   92  A    between atoms: _226  and  _227
REMARK   93  A    between atoms: _226  and  _229
REMARK   94  A    between atoms: _229  and  _230
REMARK   95  A    between atoms: _233  and  _235
REMARK   96  A    between atoms: _235  and  _236
REMARK   97  A    between atoms: _235  and  _238
REMARK   98  A    between atoms: _238  and  _239
REMARK   99  A    between atoms: _245  and  _247
REMARK  100  A    between atoms: _247  and  _248
REMARK  101  A    between atoms: _247  and  _250
REMARK  102  A    between atoms: _250  and  _251
REMARK  103  A    between atoms: _256  and  _258
REMARK  104  A    between atoms: _258  and  _259
REMARK  105  A    between atoms: _258  and  _261
REMARK  106  A    between atoms: _261  and  _262
REMARK  107  A    between atoms: _272  and  _274
REMARK  108  A    between atoms: _274  and  _275
REMARK  109  A    between atoms: _274  and  _277
REMARK  110  A    between atoms: _277  and  _278
REMARK  111  A    between atoms: _283  and  _284
REMARK  112  A    between atoms: _286  and  _288
REMARK  113  A    between atoms: _288  and  _289
REMARK  114  A    between atoms: _288  and  _291
REMARK  115  A    between atoms: _291  and  _292
REMARK  116  A    between atoms: _297  and  _299
REMARK  117  A    between atoms: _299  and  _300
REMARK  118  A    between atoms: _299  and  _302
REMARK  119  A    between atoms: _302  and  _303
REMARK  120  A    between atoms: _308  and  _310
REMARK  121  A    between atoms: _310  and  _311
REMARK  122  A    between atoms: _310  and  _313
REMARK  123  A    between atoms: _313  and  _314
REMARK  124  A    between atoms: _314  and  _315
REMARK  125  A    between atoms: _320  and  _322
REMARK  126  A    between atoms: _322  and  _323
REMARK  127  A    between atoms: _322  and  _325
REMARK  128  A    between atoms: _325  and  _326
REMARK  129  A    between atoms: _331  and  _332
REMARK  130  A    between atoms: _334  and  _336
REMARK  131  A    between atoms: _336  and  _337
REMARK  132  A    between atoms: _336  and  _339
REMARK  133  A    between atoms: _339  and  _340
REMARK  134  A    between atoms: _343  and  _345
REMARK  135  A    between atoms: _345  and  _346
REMARK  136  A    between atoms: _349  and  _351
REMARK  137  A    between atoms: _351  and  _352
REMARK  138  A    between atoms: _351  and  _354
REMARK  139  A    between atoms: _354  and  _355
REMARK  140  A    between atoms: _357  and  _359
REMARK  141  A    between atoms: _359  and  _360
REMARK  142  A    between atoms: _359  and  _362
REMARK  143  A    between atoms: _362  and  _363
REMARK  144  A    between atoms: _363  and  _364
REMARK  145  A    between atoms: _366  and  _368
REMARK  146  A    between atoms: _368  and  _369
REMARK  147  A    between atoms: _368  and  _371
REMARK  148  A    between atoms: _371  and  _372
REMARK  149  A    between atoms: _374  and  _376
REMARK  150  A    between atoms: _376  and  _377
REMARK  151  A    between atoms: _376  and  _379
REMARK  152  A    between atoms: _379  and  _380
REMARK  153  A    between atoms: _385  and  _386
REMARK  154  A    between atoms: _388  and  _390
REMARK  155  A    between atoms: _390  and  _391
REMARK  156  A    between atoms: _390  and  _393
REMARK  157  A    between atoms: _393  and  _394
REMARK  158  A    between atoms: _396  and  _398
REMARK  159  A    between atoms: _398  and  _399
REMARK  160  A    between atoms: _402  and  _404
REMARK  161  A    between atoms: _404  and  _405
REMARK  162  A    between atoms: _404  and  _407
REMARK  163  A    between atoms: _407  and  _408
REMARK  164  A    between atoms: _418  and  _420
REMARK  165  A    between atoms: _420  and  _421
REMARK  166  A    between atoms: _420  and  _423
REMARK  167  A    between atoms: _426  and  _428
REMARK  168  A    between atoms: _428  and  _429
REMARK  169  A    between atoms: _428  and  _431
REMARK  170  A    between atoms: _431  and  _432
REMARK  171  A    between atoms: _435  and  _437
REMARK  172  A    between atoms: _437  and  _438
REMARK  173  A    between atoms: _437  and  _440
REMARK  174  A    between atoms: _440  and  _441
REMARK  175  A    between atoms: _446  and  _447
REMARK  176  A    between atoms: _449  and  _451
REMARK  177  A    between atoms: _451  and  _452
REMARK  178  A    between atoms: _451  and  _454
REMARK  179  A    between atoms: _457  and  _459
REMARK  180  A    between atoms: _459  and  _460
REMARK  181  A    between atoms: _459  and  _462
REMARK  182  A    between atoms: _462  and  _463
REMARK  183  A    between atoms: _469  and  _471
REMARK  184  A    between atoms: _471  and  _472
REMARK  185  A    between atoms: _471  and  _474
REMARK  186  A    between atoms: _474  and  _475
REMARK  187  A    between atoms: _475  and  _476
REMARK  188  A    between atoms: _481  and  _483
REMARK  189  A    between atoms: _483  and  _484
REMARK  190  A    between atoms: _483  and  _486
REMARK  191  A    between atoms: _486  and  _487
REMARK  192  A    between atoms: _489  and  _491
REMARK  193  A    between atoms: _491  and  _492
REMARK  194  A    between atoms: _491  and  _494
REMARK  195  A    between atoms: _494  and  _495
REMARK  196  A    between atoms: _500  and  _502
REMARK  197  A    between atoms: _502  and  _503
REMARK  198  A    between atoms: _502  and  _505
REMARK  199  A    between atoms: _505  and  _506
REMARK  200  A    between atoms: _516  and  _518
REMARK  201  A    between atoms: _518  and  _519
REMARK  202  A    between atoms: _518  and  _521
REMARK  203  A    between atoms: _521  and  _522
REMARK  204  A    between atoms: _525  and  _527
REMARK  205  A    between atoms: _527  and  _528
REMARK  206  A    between atoms: _527  and  _530
REMARK  207  A    between atoms: _530  and  _531
REMARK  208  A    between atoms: _536  and  _537
REMARK  209  A    between atoms: _539  and  _541
REMARK  210  A    between atoms: _541  and  _542
REMARK  211  A    between atoms: _541  and  _544
REMARK  212  A    between atoms: _544  and  _545
REMARK  213  A    between atoms: _548  and  _550
REMARK  214  A    between atoms: _550  and  _551
REMARK  215  A    between atoms: _550  and  _553
REMARK  216  A    between atoms: _553  and  _554
REMARK  217  A    between atoms: _554  and  _555
REMARK  218  A    between atoms: _558  and  _560
REMARK  219  A    between atoms: _560  and  _561
REMARK  220  A    between atoms: _560  and  _563
REMARK  221  A    between atoms: _563  and  _564
REMARK  222  A    between atoms: _569  and  _571
REMARK  223  A    between atoms: _571  and  _572
REMARK  224  A    between atoms: _574  and  _576
REMARK  225  A    between atoms: _576  and  _577
REMARK  226  A    between atoms: _576  and  _579
REMARK  227  A    between atoms: _579  and  _580
REMARK  228  A    between atoms: _580  and  _581
REMARK  229  A    between atoms: _583  and  _585
REMARK  230  A    between atoms: _585  and  _586
REMARK  231  A    between atoms: _585  and  _588
REMARK  232  A    between atoms: _588  and  _589
REMARK  233  A    between atoms: _592  and  _594
REMARK  234  A    between atoms: _594  and  _595
REMARK  235  A    between atoms: _594  and  _597
REMARK  236  A    between atoms: _597  and  _598
REMARK  237  A    between atoms: _608  and  _610
REMARK  238  A    between atoms: _610  and  _611
REMARK  239  A    between atoms: _610  and  _613
REMARK  240  A    between atoms: _613  and  _614
REMARK  241  A    between atoms: _616  and  _618
REMARK  242  A    between atoms: _618  and  _619
REMARK  243  A    between atoms: _618  and  _621
REMARK  244  A    between atoms: _621  and  _622
REMARK  245  A    between atoms: _627  and  _629
REMARK  246  A    between atoms: _629  and  _630
REMARK  247  A    between atoms: _629  and  _632
REMARK  248  A    between atoms: _632  and  _633
REMARK  249  A    between atoms: _639  and  _641
REMARK  250  A    between atoms: _641  and  _642
REMARK  251  A    between atoms: _641  and  _644
REMARK  252  A    between atoms: _644  and  _645
REMARK  253  A    between atoms: _645  and  _646
REMARK  254  A    between atoms: _649  and  _651
REMARK  255  A    between atoms: _651  and  _652
REMARK  256  A    between atoms: _651  and  _654
REMARK  257  A    between atoms: _654  and  _655
REMARK  258  A    between atoms: _665  and  _667
REMARK  259  A    between atoms: _667  and  _668
REMARK  260  A    between atoms: _667  and  _670
REMARK  261  A    between atoms: _670  and  _671
REMARK  262  A    between atoms: _674  and  _676
REMARK  263  A    between atoms: _676  and  _677
REMARK  264  A    between atoms: _676  and  _679
REMARK  265  A    between atoms: _679  and  _680
REMARK  266  A    between atoms: _682  and  _684
REMARK  267  A    between atoms: _684  and  _685
REMARK  268  A    between atoms: _684  and  _687
REMARK  269  A    between atoms: _687  and  _688
REMARK  270  A    between atoms: _690  and  _692
REMARK  271  A    between atoms: _692  and  _693
REMARK  272  A    between atoms: _692  and  _695
REMARK  273  A    between atoms: _695  and  _696
REMARK                            x       y       z     vdW  Elec       q    Type
REMARK                         _______ _______ _______ _____ _____    ______ ____
ROOT
ATOM      1  O   HOH     1      -4.386   1.603  44.057  0.00  0.00    +0.000 OA
ENDROOT
TORSDOF 0
REMARK  Name = ../refined-set-2016/3f5j/3f5j_pocket.pdb
REMARK  273 active torsions:
REMARK  status: ('A' for Active; 'I' for Inactive)
REMARK    1  A    between atoms: _1  and  _3
REMARK    2  A    between atoms: _3  and  _4
REMARK    3  A    between atoms: _3  and  _6
REMARK    4  A    between atoms: _9  and  _11
REMARK    5  A    between atoms: _11  and  _12
REMARK    6  A    between atoms: _11  and  _14
REMARK    7  A    between atoms: _14  and  _15
REMARK    8  A    between atoms: _18  and  _20
REMARK    9  A    between atoms: _20  and  _21
REMARK   10  A    between atoms: _20  and  _23
REMARK   11  A    between atoms: _23  and  _24
REMARK   12  A    between atoms: _26  and  _28
REMARK   13  A    between atoms: _28  and  _29
REMARK   14  A    between atoms: _28  and  _31
REMARK   15  A    between atoms: _31  and  _32
REMARK   16  A    between atoms: _32  and  _33
REMARK   17  A    between atoms: _38  and  _40
REMARK   18  A    between atoms: _40  and  _41
REMARK   19  A    between atoms: _40  and  _43
REMARK   20  A    between atoms: _43  and  _44
REMARK   21  A    between atoms: _44  and  _45
REMARK   22  A    between atoms: _45  and  _46
REMARK   23  A    between atoms: _55  and  _57
REMARK   24  A    between atoms: _57  and  _58
REMARK   25  A    between atoms: _57  and  _60
REMARK   26  A    between atoms: _60  and  _61
REMARK   27  A    between atoms: _63  and  _65
REMARK   28  A    between atoms: _65  and  _66
REMARK   29  A    between atoms: _65  and  _68
REMARK   30  A    between atoms: _68  and  _69
REMARK   31  A    between atoms: _74  and  _76
REMARK   32  A    between atoms: _76  and  _77
REMARK   33  A    between atoms: _76  and  _79
REMARK   34  A    between atoms: _79  and  _80
REMARK   35  A    between atoms: _85  and  _87
REMARK   36  A    between atoms: _87  and  _88
REMARK   37  A    between atoms: _87  and  _90
REMARK   38  A    between atoms: _90  and  _91
REMARK   39  A    between atoms: _96  and  _97
REMARK   40  A    between atoms: _99  and  _101
REMARK   41  A    between atoms: _101  and  _102
REMARK   42  A    between atoms: _101  and  _104
REMARK   43  A    between atoms: _104  and  _105
REMARK   44  A    between atoms: _110  and  _112
REMARK   45  A    between atoms: _112  and  _113
REMARK   46  A    between atoms: _112  and  _115
REMARK   47  A    between atoms: _115  and  _116
REMARK   48  A    between atoms: _116  and  _117
REMARK   49  A    between atoms: _122  and  _124
REMARK   50  A    between atoms: _124  and  _125
REMARK   51  A    between atoms: _124  and  _127
REMARK   52  A    between atoms: _127  and  _128
REMARK   53  A    between atoms: _128  and  _129
REMARK   54  A    between atoms: _129  and  _130
REMARK   55  A    between atoms: _139  and  _141
REMARK   56  A    between atoms: _141  and  _142
REMARK   57  A    between atoms: _141  and  _144
REMARK   58  A    between atoms: _144  and  _145
REMARK   59  A    between atoms: _148  and  _150
REMARK   60  A    between atoms: _150  and  _151
REMARK   61  A    between atoms: _150  and  _153
REMARK   62  A    between atoms: _153  and  _154
REMARK   63  A    between atoms: _157  and  _159
REMARK   64  A    between atoms: _159  and  _160
REMARK   65  A    between atoms: _159  and  _162
REMARK   66  A    between atoms: _162  and  _163
REMARK   67  A    between atoms: _166  and  _168
REMARK   68  A    between atoms: _168  and  _169
REMARK   69  A    between atoms: _168  and  _171
REMARK   70  A    between atoms: _171  and  _172
REMARK   71  A    between atoms: _175  and  _177
REMARK   72  A    between atoms: _177  and  _178
REMARK   73  A    between atoms: _177  and  _180
REMARK   74  A    between atoms: _180  and  _181
REMARK   75  A    between atoms: _181  and  _182
REMARK   76  A    between atoms: _187  and  _189
REMARK   77  A    between atoms: _189  and  _190
REMARK   78  A    between atoms: _189  and  _192
REMARK   79  A    between atoms: _192  and  _193
REMARK   80  A    between atoms: _196  and  _198
REMARK   81  A    between atoms: _198  and  _199
REMARK   82  A    between atoms: _198  and  _201
REMARK   83  A    between atoms: _201  and  _202
REMARK   84  A    between atoms: _207  and  _209
REMARK   85  A    between atoms: _209  and  _210
REMARK   86  A    between atoms: _209  and  _212
REMARK   87  A    between atoms: _215  and  _217
REMARK   88  A    between atoms: _217  and  _218
REMARK   89  A    between atoms: _217  and  _220
REMARK   90  A    between atoms: _220  and  _221
REMARK   91  A    between atoms: _224  and  _226
REMARK   92  A    between atoms: _226  and  _227
REMARK   93  A    between atoms: _226  and  _229
REMARK   94  A    between atoms: _229  and  _230
REMARK   95  A    between atoms: _233  and  _235
REMARK   96  A    between atoms: _235  and  _236
REMARK   97  A    between atoms: _235  and  _238
REMARK   98  A    between atoms: _238  and  _239
REMARK   99  A    between atoms: _245  and  _247
REMARK  100  A    between atoms: _247  and  _248
REMARK  101  A    between atoms: _247  and  _250
REMARK  102  A    between atoms: _250  and  _251
REMARK  103  A    between atoms: _256  and  _258
REMARK  104  A    between atoms: _258  and  _259
REMARK  105  A    between atoms: _258  and  _261
REMARK  106  A    between atoms: _261  and  _262
REMARK  107  A    between atoms: _272  and  _274
REMARK  108  A    between atoms: _274  and  _275
REMARK  109  A    between atoms: _274  and  _277
REMARK  110  A    between atoms: _277  and  _278
REMARK  111  A    between atoms: _283  and  _284
REMARK  112  A    between atoms: _286  and  _288
REMARK  113  A    between atoms: _288  and  _289
REMARK  114  A    between atoms: _288  and  _291
REMARK  115  A    between atoms: _291  and  _292
REMARK  116  A    between atoms: _297  and  _299
REMARK  117  A    between atoms: _299  and  _300
REMARK  118  A    between atoms: _299  and  _302
REMARK  119  A    between atoms: _302  and  _303
REMARK  120  A    between atoms: _308  and  _310
REMARK  121  A    between atoms: _310  and  _311
REMARK  122  A    between atoms: _310  and  _313
REMARK  123  A    between atoms: _313  and  _314
REMARK  124  A    between atoms: _314  and  _315
REMARK  125  A    between atoms: _320  and  _322
REMARK  126  A    between atoms: _322  and  _323
REMARK  127  A    between atoms: _322  and  _325
REMARK  128  A    between atoms: _325  and  _326
REMARK  129  A    between atoms: _331  and  _332
REMARK  130  A    between atoms: _334  and  _336
REMARK  131  A    between atoms: _336  and  _337
REMARK  132  A    between atoms: _336  and  _339
REMARK  133  A    between atoms: _339  and  _340
REMARK  134  A    between atoms: _343  and  _345
REMARK  135  A    between atoms: _345  and  _346
REMARK  136  A    between atoms: _349  and  _351
REMARK  137  A    between atoms: _351  and  _352
REMARK  138  A    between atoms: _351  and  _354
REMARK  139  A    between atoms: _354  and  _355
REMARK  140  A    between atoms: _357  and  _359
REMARK  141  A    between atoms: _359  and  _360
REMARK  142  A    between atoms: _359  and  _362
REMARK  143  A    between atoms: _362  and  _363
REMARK  144  A    between atoms: _363  and  _364
REMARK  145  A    between atoms: _366  and  _368
REMARK  146  A    between atoms: _368  and  _369
REMARK  147  A    between atoms: _368  and  _371
REMARK  148  A    between atoms: _371  and  _372
REMARK  149  A    between atoms: _374  and  _376
REMARK  150  A    between atoms: _376  and  _377
REMARK  151  A    between atoms: _376  and  _379
REMARK  152  A    between atoms: _379  and  _380
REMARK  153  A    between atoms: _385  and  _386
REMARK  154  A    between atoms: _388  and  _390
REMARK  155  A    between atoms: _390  and  _391
REMARK  156  A    between atoms: _390  and  _393
REMARK  157  A    between atoms: _393  and  _394
REMARK  158  A    between atoms: _396  and  _398
REMARK  159  A    between atoms: _398  and  _399
REMARK  160  A    between atoms: _402  and  _404
REMARK  161  A    between atoms: _404  and  _405
REMARK  162  A    between atoms: _404  and  _407
REMARK  163  A    between atoms: _407  and  _408
REMARK  164  A    between atoms: _418  and  _420
REMARK  165  A    between atoms: _420  and  _421
REMARK  166  A    between atoms: _420  and  _423
REMARK  167  A    between atoms: _426  and  _428
REMARK  168  A    between atoms: _428  and  _429
REMARK  169  A    between atoms: _428  and  _431
REMARK  170  A    between atoms: _431  and  _432
REMARK  171  A    between atoms: _435  and  _437
REMARK  172  A    between atoms: _437  and  _438
REMARK  173  A    between atoms: _437  and  _440
REMARK  174  A    between atoms: _440  and  _441
REMARK  175  A    between atoms: _446  and  _447
REMARK  176  A    between atoms: _449  and  _451
REMARK  177  A    between atoms: _451  and  _452
REMARK  178  A    between atoms: _451  and  _454
REMARK  179  A    between atoms: _457  and  _459
REMARK  180  A    between atoms: _459  and  _460
REMARK  181  A    between atoms: _459  and  _462
REMARK  182  A    between atoms: _462  and  _463
REMARK  183  A    between atoms: _469  and  _471
REMARK  184  A    between atoms: _471  and  _472
REMARK  185  A    between atoms: _471  and  _474
REMARK  186  A    between atoms: _474  and  _475
REMARK  187  A    between atoms: _475  and  _476
REMARK  188  A    between atoms: _481  and  _483
REMARK  189  A    between atoms: _483  and  _484
REMARK  190  A    between atoms: _483  and  _486
REMARK  191  A    between atoms: _486  and  _487
REMARK  192  A    between atoms: _489  and  _491
REMARK  193  A    between atoms: _491  and  _492
REMARK  194  A    between atoms: _491  and  _494
REMARK  195  A    between atoms: _494  and  _495
REMARK  196  A    between atoms: _500  and  _502
REMARK  197  A    between atoms: _502  and  _503
REMARK  198  A    between atoms: _502  and  _505
REMARK  199  A    between atoms: _505  and  _506
REMARK  200  A    between atoms: _516  and  _518
REMARK  201  A    between atoms: _518  and  _519
REMARK  202  A    between atoms: _518  and  _521
REMARK  203  A    between atoms: _521  and  _522
REMARK  204  A    between atoms: _525  and  _527
REMARK  205  A    between atoms: _527  and  _528
REMARK  206  A    between atoms: _527  and  _530
REMARK  207  A    between atoms: _530  and  _531
REMARK  208  A    between atoms: _536  and  _537
REMARK  209  A    between atoms: _539  and  _541
REMARK  210  A    between atoms: _541  and  _542
REMARK  211  A    between atoms: _541  and  _544
REMARK  212  A    between atoms: _544  and  _545
REMARK  213  A    between atoms: _548  and  _550
REMARK  214  A    between atoms: _550  and  _551
REMARK  215  A    between atoms: _550  and  _553
REMARK  216  A    between atoms: _553  and  _554
REMARK  217  A    between atoms: _554  and  _555
REMARK  218  A    between atoms: _558  and  _560
REMARK  219  A    between atoms: _560  and  _561
REMARK  220  A    between atoms: _560  and  _563
REMARK  221  A    between atoms: _563  and  _564
REMARK  222  A    between atoms: _569  and  _571
REMARK  223  A    between atoms: _571  and  _572
REMARK  224  A    between atoms: _574  and  _576
REMARK  225  A    between atoms: _576  and  _577
REMARK  226  A    between atoms: _576  and  _579
REMARK  227  A    between atoms: _579  and  _580
REMARK  228  A    between atoms: _580  and  _581
REMARK  229  A    between atoms: _583  and  _585
REMARK  230  A    between atoms: _585  and  _586
REMARK  231  A    between atoms: _585  and  _588
REMARK  232  A    between atoms: _588  and  _589
REMARK  233  A    between atoms: _592  and  _594
REMARK  234  A    between atoms: _594  and  _595
REMARK  235  A    between atoms: _594  and  _597
REMARK  236  A    between atoms: _597  and  _598
REMARK  237  A    between atoms: _608  and  _610
REMARK  238  A    between atoms: _610  and  _611
REMARK  239  A    between atoms: _610  and  _613
REMARK  240  A    between atoms: _613  and  _614
REMARK  241  A    between atoms: _616  and  _618
REMARK  242  A    between atoms: _618  and  _619
REMARK  243  A    between atoms: _618  and  _621
REMARK  244  A    between atoms: _621  and  _622
REMARK  245  A    between atoms: _627  and  _629
REMARK  246  A    between atoms: _629  and  _630
REMARK  247  A    between atoms: _629  and  _632
REMARK  248  A    between atoms: _632  and  _633
REMARK  249  A    between atoms: _639  and  _641
REMARK  250  A    between atoms: _641  and  _642
REMARK  251  A    between atoms: _641  and  _644
REMARK  252  A    between atoms: _644  and  _645
REMARK  253  A    between atoms: _645  and  _646
REMARK  254  A    between atoms: _649  and  _651
REMARK  255  A    between atoms: _651  and  _652
REMARK  256  A    between atoms: _651  and  _654
REMARK  257  A    between atoms: _654  and  _655
REMARK  258  A    between atoms: _665  and  _667
REMARK  259  A    between atoms: _667  and  _668
REMARK  260  A    between atoms: _667  and  _670
REMARK  261  A    between atoms: _670  and  _671
REMARK  262  A    between atoms: _674  and  _676
REMARK  263  A    between atoms: _676  and  _677
REMARK  264  A    between atoms: _676  and  _679
REMARK  265  A    between atoms: _679  and  _680
REMARK  266  A    between atoms: _682  and  _684
REMARK  267  A    between atoms: _684  and  _685
REMARK  268  A    between atoms: _684  and  _687
REMARK  269  A    between atoms: _687  and  _688
REMARK  270  A    between atoms: _690  and  _692
REMARK  271  A    between atoms: _692  and  _693
REMARK  272  A    between atoms: _692  and  _695
REMARK  273  A    between atoms: _695  and  _696
REMARK                            x       y       z     vdW  Elec       q    Type
REMARK                         _______ _______ _______ _____ _____    ______ ____
ROOT
ATOM      1  O   HOH     1       5.123   5.200  49.631  0.00  0.00    +0.000 OA
ENDROOT
TORSDOF 0
REMARK  Name = ../refined-set-2016/3f5j/3f5j_pocket.pdb
REMARK  273 active torsions:
REMARK  status: ('A' for Active; 'I' for Inactive)
REMARK    1  A    between atoms: _1  and  _3
REMARK    2  A    between atoms: _3  and  _4
REMARK    3  A    between atoms: _3  and  _6
REMARK    4  A    between atoms: _9  and  _11
REMARK    5  A    between atoms: _11  and  _12
REMARK    6  A    between atoms: _11  and  _14
REMARK    7  A    between atoms: _14  and  _15
REMARK    8  A    between atoms: _18  and  _20
REMARK    9  A    between atoms: _20  and  _21
REMARK   10  A    between atoms: _20  and  _23
REMARK   11  A    between atoms: _23  and  _24
REMARK   12  A    between atoms: _26  and  _28
REMARK   13  A    between atoms: _28  and  _29
REMARK   14  A    between atoms: _28  and  _31
REMARK   15  A    between atoms: _31  and  _32
REMARK   16  A    between atoms: _32  and  _33
REMARK   17  A    between atoms: _38  and  _40
REMARK   18  A    between atoms: _40  and  _41
REMARK   19  A    between atoms: _40  and  _43
REMARK   20  A    between atoms: _43  and  _44
REMARK   21  A    between atoms: _44  and  _45
REMARK   22  A    between atoms: _45  and  _46
REMARK   23  A    between atoms: _55  and  _57
REMARK   24  A    between atoms: _57  and  _58
REMARK   25  A    between atoms: _57  and  _60
REMARK   26  A    between atoms: _60  and  _61
REMARK   27  A    between atoms: _63  and  _65
REMARK   28  A    between atoms: _65  and  _66
REMARK   29  A    between atoms: _65  and  _68
REMARK   30  A    between atoms: _68  and  _69
REMARK   31  A    between atoms: _74  and  _76
REMARK   32  A    between atoms: _76  and  _77
REMARK   33  A    between atoms: _76  and  _79
REMARK   34  A    between atoms: _79  and  _80
REMARK   35  A    between atoms: _85  and  _87
REMARK   36  A    between atoms: _87  and  _88
REMARK   37  A    between atoms: _87  and  _90
REMARK   38  A    between atoms: _90  and  _91
REMARK   39  A    between atoms: _96  and  _97
REMARK   40  A    between atoms: _99  and  _101
REMARK   41  A    between atoms: _101  and  _102
REMARK   42  A    between atoms: _101  and  _104
REMARK   43  A    between atoms: _104  and  _105
REMARK   44  A    between atoms: _110  and  _112
REMARK   45  A    between atoms: _112  and  _113
REMARK   46  A    between atoms: _112  and  _115
REMARK   47  A    between atoms: _115  and  _116
REMARK   48  A    between atoms: _116  and  _117
REMARK   49  A    between atoms: _122  and  _124
REMARK   50  A    between atoms: _124  and  _125
REMARK   51  A    between atoms: _124  and  _127
REMARK   52  A    between atoms: _127  and  _128
REMARK   53  A    between atoms: _128  and  _129
REMARK   54  A    between atoms: _129  and  _130
REMARK   55  A    between atoms: _139  and  _141
REMARK   56  A    between atoms: _141  and  _142
REMARK   57  A    between atoms: _141  and  _144
REMARK   58  A    between atoms: _144  and  _145
REMARK   59  A    between atoms: _148  and  _150
REMARK   60  A    between atoms: _150  and  _151
REMARK   61  A    between atoms: _150  and  _153
REMARK   62  A    between atoms: _153  and  _154
REMARK   63  A    between atoms: _157  and  _159
REMARK   64  A    between atoms: _159  and  _160
REMARK   65  A    between atoms: _159  and  _162
REMARK   66  A    between atoms: _162  and  _163
REMARK   67  A    between atoms: _166  and  _168
REMARK   68  A    between atoms: _168  and  _169
REMARK   69  A    between atoms: _168  and  _171
REMARK   70  A    between atoms: _171  and  _172
REMARK   71  A    between atoms: _175  and  _177
REMARK   72  A    between atoms: _177  and  _178
REMARK   73  A    between atoms: _177  and  _180
REMARK   74  A    between atoms: _180  and  _181
REMARK   75  A    between atoms: _181  and  _182
REMARK   76  A    between atoms: _187  and  _189
REMARK   77  A    between atoms: _189  and  _190
REMARK   78  A    between atoms: _189  and  _192
REMARK   79  A    between atoms: _192  and  _193
REMARK   80  A    between atoms: _196  and  _198
REMARK   81  A    between atoms: _198  and  _199
REMARK   82  A    between atoms: _198  and  _201
REMARK   83  A    between atoms: _201  and  _202
REMARK   84  A    between atoms: _207  and  _209
REMARK   85  A    between atoms: _209  and  _210
REMARK   86  A    between atoms: _209  and  _212
REMARK   87  A    between atoms: _215  and  _217
REMARK   88  A    between atoms: _217  and  _218
REMARK   89  A    between atoms: _217  and  _220
REMARK   90  A    between atoms: _220  and  _221
REMARK   91  A    between atoms: _224  and  _226
REMARK   92  A    between atoms: _226  and  _227
REMARK   93  A    between atoms: _226  and  _229
REMARK   94  A    between atoms: _229  and  _230
REMARK   95  A    between atoms: _233  and  _235
REMARK   96  A    between atoms: _235  and  _236
REMARK   97  A    between atoms: _235  and  _238
REMARK   98  A    between atoms: _238  and  _239
REMARK   99  A    between atoms: _245  and  _247
REMARK  100  A    between atoms: _247  and  _248
REMARK  101  A    between atoms: _247  and  _250
REMARK  102  A    between atoms: _250  and  _251
REMARK  103  A    between atoms: _256  and  _258
REMARK  104  A    between atoms: _258  and  _259
REMARK  105  A    between atoms: _258  and  _261
REMARK  106  A    between atoms: _261  and  _262
REMARK  107  A    between atoms: _272  and  _274
REMARK  108  A    between atoms: _274  and  _275
REMARK  109  A    between atoms: _274  and  _277
REMARK  110  A    between atoms: _277  and  _278
REMARK  111  A    between atoms: _283  and  _284
REMARK  112  A    between atoms: _286  and  _288
REMARK  113  A    between atoms: _288  and  _289
REMARK  114  A    between atoms: _288  and  _291
REMARK  115  A    between atoms: _291  and  _292
REMARK  116  A    between atoms: _297  and  _299
REMARK  117  A    between atoms: _299  and  _300
REMARK  118  A    between atoms: _299  and  _302
REMARK  119  A    between atoms: _302  and  _303
REMARK  120  A    between atoms: _308  and  _310
REMARK  121  A    between atoms: _310  and  _311
REMARK  122  A    between atoms: _310  and  _313
REMARK  123  A    between atoms: _313  and  _314
REMARK  124  A    between atoms: _314  and  _315
REMARK  125  A    between atoms: _320  and  _322
REMARK  126  A    between atoms: _322  and  _323
REMARK  127  A    between atoms: _322  and  _325
REMARK  128  A    between atoms: _325  and  _326
REMARK  129  A    between atoms: _331  and  _332
REMARK  130  A    between atoms: _334  and  _336
REMARK  131  A    between atoms: _336  and  _337
REMARK  132  A    between atoms: _336  and  _339
REMARK  133  A    between atoms: _339  and  _340
REMARK  134  A    between atoms: _343  and  _345
REMARK  135  A    between atoms: _345  and  _346
REMARK  136  A    between atoms: _349  and  _351
REMARK  137  A    between atoms: _351  and  _352
REMARK  138  A    between atoms: _351  and  _354
REMARK  139  A    between atoms: _354  and  _355
REMARK  140  A    between atoms: _357  and  _359
REMARK  141  A    between atoms: _359  and  _360
REMARK  142  A    between atoms: _359  and  _362
REMARK  143  A    between atoms: _362  and  _363
REMARK  144  A    between atoms: _363  and  _364
REMARK  145  A    between atoms: _366  and  _368
REMARK  146  A    between atoms: _368  and  _369
REMARK  147  A    between atoms: _368  and  _371
REMARK  148  A    between atoms: _371  and  _372
REMARK  149  A    between atoms: _374  and  _376
REMARK  150  A    between atoms: _376  and  _377
REMARK  151  A    between atoms: _376  and  _379
REMARK  152  A    between atoms: _379  and  _380
REMARK  153  A    between atoms: _385  and  _386
REMARK  154  A    between atoms: _388  and  _390
REMARK  155  A    between atoms: _390  and  _391
REMARK  156  A    between atoms: _390  and  _393
REMARK  157  A    between atoms: _393  and  _394
REMARK  158  A    between atoms: _396  and  _398
REMARK  159  A    between atoms: _398  and  _399
REMARK  160  A    between atoms: _402  and  _404
REMARK  161  A    between atoms: _404  and  _405
REMARK  162  A    between atoms: _404  and  _407
REMARK  163  A    between atoms: _407  and  _408
REMARK  164  A    between atoms: _418  and  _420
REMARK  165  A    between atoms: _420  and  _421
REMARK  166  A    between atoms: _420  and  _423
REMARK  167  A    between atoms: _426  and  _428
REMARK  168  A    between atoms: _428  and  _429
REMARK  169  A    between atoms: _428  and  _431
REMARK  170  A    between atoms: _431  and  _432
REMARK  171  A    between atoms: _435  and  _437
REMARK  172  A    between atoms: _437  and  _438
REMARK  173  A    between atoms: _437  and  _440
REMARK  174  A    between atoms: _440  and  _441
REMARK  175  A    between atoms: _446  and  _447
REMARK  176  A    between atoms: _449  and  _451
REMARK  177  A    between atoms: _451  and  _452
REMARK  178  A    between atoms: _451  and  _454
REMARK  179  A    between atoms: _457  and  _459
REMARK  180  A    between atoms: _459  and  _460
REMARK  181  A    between atoms: _459  and  _462
REMARK  182  A    between atoms: _462  and  _463
REMARK  183  A    between atoms: _469  and  _471
REMARK  184  A    between atoms: _471  and  _472
REMARK  185  A    between atoms: _471  and  _474
REMARK  186  A    between atoms: _474  and  _475
REMARK  187  A    between atoms: _475  and  _476
REMARK  188  A    between atoms: _481  and  _483
REMARK  189  A    between atoms: _483  and  _484
REMARK  190  A    between atoms: _483  and  _486
REMARK  191  A    between atoms: _486  and  _487
REMARK  192  A    between atoms: _489  and  _491
REMARK  193  A    between atoms: _491  and  _492
REMARK  194  A    between atoms: _491  and  _494
REMARK  195  A    between atoms: _494  and  _495
REMARK  196  A    between atoms: _500  and  _502
REMARK  197  A    between atoms: _502  and  _503
REMARK  198  A    between atoms: _502  and  _505
REMARK  199  A    between atoms: _505  and  _506
REMARK  200  A    between atoms: _516  and  _518
REMARK  201  A    between atoms: _518  and  _519
REMARK  202  A    between atoms: _518  and  _521
REMARK  203  A    between atoms: _521  and  _522
REMARK  204  A    between atoms: _525  and  _527
REMARK  205  A    between atoms: _527  and  _528
REMARK  206  A    between atoms: _527  and  _530
REMARK  207  A    between atoms: _530  and  _531
REMARK  208  A    between atoms: _536  and  _537
REMARK  209  A    between atoms: _539  and  _541
REMARK  210  A    between atoms: _541  and  _542
REMARK  211  A    between atoms: _541  and  _544
REMARK  212  A    between atoms: _544  and  _545
REMARK  213  A    between atoms: _548  and  _550
REMARK  214  A    between atoms: _550  and  _551
REMARK  215  A    between atoms: _550  and  _553
REMARK  216  A    between atoms: _553  and  _554
REMARK  217  A    between atoms: _554  and  _555
REMARK  218  A    between atoms: _558  and  _560
REMARK  219  A    between atoms: _560  and  _561
REMARK  220  A    between atoms: _560  and  _563
REMARK  221  A    between atoms: _563  and  _564
REMARK  222  A    between atoms: _569  and  _571
REMARK  223  A    between atoms: _571  and  _572
REMARK  224  A    between atoms: _574  and  _576
REMARK  225  A    between atoms: _576  and  _577
REMARK  226  A    between atoms: _576  and  _579
REMARK  227  A    between atoms: _579  and  _580
REMARK  228  A    between atoms: _580  and  _581
REMARK  229  A    between atoms: _583  and  _585
REMARK  230  A    between atoms: _585  and  _586
REMARK  231  A    between atoms: _585  and  _588
REMARK  232  A    between atoms: _588  and  _589
REMARK  233  A    between atoms: _592  and  _594
REMARK  234  A    between atoms: _594  and  _595
REMARK  235  A    between atoms: _594  and  _597
REMARK  236  A    between atoms: _597  and  _598
REMARK  237  A    between atoms: _608  and  _610
REMARK  238  A    between atoms: _610  and  _611
REMARK  239  A    between atoms: _610  and  _613
REMARK  240  A    between atoms: _613  and  _614
REMARK  241  A    between atoms: _616  and  _618
REMARK  242  A    between atoms: _618  and  _619
REMARK  243  A    between atoms: _618  and  _621
REMARK  244  A    between atoms: _621  and  _622
REMARK  245  A    between atoms: _627  and  _629
REMARK  246  A    between atoms: _629  and  _630
REMARK  247  A    between atoms: _629  and  _632
REMARK  248  A    between atoms: _632  and  _633
REMARK  249  A    between atoms: _639  and  _641
REMARK  250  A    between atoms: _641  and  _642
REMARK  251  A    between atoms: _641  and  _644
REMARK  252  A    between atoms: _644  and  _645
REMARK  253  A    between atoms: _645  and  _646
REMARK  254  A    between atoms: _649  and  _651
REMARK  255  A    between atoms: _651  and  _652
REMARK  256  A    between atoms: _651  and  _654
REMARK  257  A    between atoms: _654  and  _655
REMARK  258  A    between atoms: _665  and  _667
REMARK  259  A    between atoms: _667  and  _668
REMARK  260  A    between atoms: _667  and  _670
REMARK  261  A    between atoms: _670  and  _671
REMARK  262  A    between atoms: _674  and  _676
REMARK  263  A    between atoms: _676  and  _677
REMARK  264  A    between atoms: _676  and  _679
REMARK  265  A    between atoms: _679  and  _680
REMARK  266  A    between atoms: _682  and  _684
REMARK  267  A    between atoms: _684  and  _685
REMARK  268  A    between atoms: _684  and  _687
REMARK  269  A    between atoms: _687  and  _688
REMARK  270  A    between atoms: _690  and  _692
REMARK  271  A    between atoms: _692  and  _693
REMARK  272  A    between atoms: _692  and  _695
REMARK  273  A    between atoms: _695  and  _696
REMARK                            x       y       z     vdW  Elec       q    Type
REMARK                         _______ _______ _______ _____ _____    ______ ____
ROOT
ATOM      1  O   HOH     1      11.220  -0.723  29.917  0.00  0.00    +0.000 OA
ENDROOT
TORSDOF 0
REMARK  Name = ../refined-set-2016/3f5j/3f5j_pocket.pdb
REMARK  273 active torsions:
REMARK  status: ('A' for Active; 'I' for Inactive)
REMARK    1  A    between atoms: _1  and  _3
REMARK    2  A    between atoms: _3  and  _4
REMARK    3  A    between atoms: _3  and  _6
REMARK    4  A    between atoms: _9  and  _11
REMARK    5  A    between atoms: _11  and  _12
REMARK    6  A    between atoms: _11  and  _14
REMARK    7  A    between atoms: _14  and  _15
REMARK    8  A    between atoms: _18  and  _20
REMARK    9  A    between atoms: _20  and  _21
REMARK   10  A    between atoms: _20  and  _23
REMARK   11  A    between atoms: _23  and  _24
REMARK   12  A    between atoms: _26  and  _28
REMARK   13  A    between atoms: _28  and  _29
REMARK   14  A    between atoms: _28  and  _31
REMARK   15  A    between atoms: _31  and  _32
REMARK   16  A    between atoms: _32  and  _33
REMARK   17  A    between atoms: _38  and  _40
REMARK   18  A    between atoms: _40  and  _41
REMARK   19  A    between atoms: _40  and  _43
REMARK   20  A    between atoms: _43  and  _44
REMARK   21  A    between atoms: _44  and  _45
REMARK   22  A    between atoms: _45  and  _46
REMARK   23  A    between atoms: _55  and  _57
REMARK   24  A    between atoms: _57  and  _58
REMARK   25  A    between atoms: _57  and  _60
REMARK   26  A    between atoms: _60  and  _61
REMARK   27  A    between atoms: _63  and  _65
REMARK   28  A    between atoms: _65  and  _66
REMARK   29  A    between atoms: _65  and  _68
REMARK   30  A    between atoms: _68  and  _69
REMARK   31  A    between atoms: _74  and  _76
REMARK   32  A    between atoms: _76  and  _77
REMARK   33  A    between atoms: _76  and  _79
REMARK   34  A    between atoms: _79  and  _80
REMARK   35  A    between atoms: _85  and  _87
REMARK   36  A    between atoms: _87  and  _88
REMARK   37  A    between atoms: _87  and  _90
REMARK   38  A    between atoms: _90  and  _91
REMARK   39  A    between atoms: _96  and  _97
REMARK   40  A    between atoms: _99  and  _101
REMARK   41  A    between atoms: _101  and  _102
REMARK   42  A    between atoms: _101  and  _104
REMARK   43  A    between atoms: _104  and  _105
REMARK   44  A    between atoms: _110  and  _112
REMARK   45  A    between atoms: _112  and  _113
REMARK   46  A    between atoms: _112  and  _115
REMARK   47  A    between atoms: _115  and  _116
REMARK   48  A    between atoms: _116  and  _117
REMARK   49  A    between atoms: _122  and  _124
REMARK   50  A    between atoms: _124  and  _125
REMARK   51  A    between atoms: _124  and  _127
REMARK   52  A    between atoms: _127  and  _128
REMARK   53  A    between atoms: _128  and  _129
REMARK   54  A    between atoms: _129  and  _130
REMARK   55  A    between atoms: _139  and  _141
REMARK   56  A    between atoms: _141  and  _142
REMARK   57  A    between atoms: _141  and  _144
REMARK   58  A    between atoms: _144  and  _145
REMARK   59  A    between atoms: _148  and  _150
REMARK   60  A    between atoms: _150  and  _151
REMARK   61  A    between atoms: _150  and  _153
REMARK   62  A    between atoms: _153  and  _154
REMARK   63  A    between atoms: _157  and  _159
REMARK   64  A    between atoms: _159  and  _160
REMARK   65  A    between atoms: _159  and  _162
REMARK   66  A    between atoms: _162  and  _163
REMARK   67  A    between atoms: _166  and  _168
REMARK   68  A    between atoms: _168  and  _169
REMARK   69  A    between atoms: _168  and  _171
REMARK   70  A    between atoms: _171  and  _172
REMARK   71  A    between atoms: _175  and  _177
REMARK   72  A    between atoms: _177  and  _178
REMARK   73  A    between atoms: _177  and  _180
REMARK   74  A    between atoms: _180  and  _181
REMARK   75  A    between atoms: _181  and  _182
REMARK   76  A    between atoms: _187  and  _189
REMARK   77  A    between atoms: _189  and  _190
REMARK   78  A    between atoms: _189  and  _192
REMARK   79  A    between atoms: _192  and  _193
REMARK   80  A    between atoms: _196  and  _198
REMARK   81  A    between atoms: _198  and  _199
REMARK   82  A    between atoms: _198  and  _201
REMARK   83  A    between atoms: _201  and  _202
REMARK   84  A    between atoms: _207  and  _209
REMARK   85  A    between atoms: _209  and  _210
REMARK   86  A    between atoms: _209  and  _212
REMARK   87  A    between atoms: _215  and  _217
REMARK   88  A    between atoms: _217  and  _218
REMARK   89  A    between atoms: _217  and  _220
REMARK   90  A    between atoms: _220  and  _221
REMARK   91  A    between atoms: _224  and  _226
REMARK   92  A    between atoms: _226  and  _227
REMARK   93  A    between atoms: _226  and  _229
REMARK   94  A    between atoms: _229  and  _230
REMARK   95  A    between atoms: _233  and  _235
REMARK   96  A    between atoms: _235  and  _236
REMARK   97  A    between atoms: _235  and  _238
REMARK   98  A    between atoms: _238  and  _239
REMARK   99  A    between atoms: _245  and  _247
REMARK  100  A    between atoms: _247  and  _248
REMARK  101  A    between atoms: _247  and  _250
REMARK  102  A    between atoms: _250  and  _251
REMARK  103  A    between atoms: _256  and  _258
REMARK  104  A    between atoms: _258  and  _259
REMARK  105  A    between atoms: _258  and  _261
REMARK  106  A    between atoms: _261  and  _262
REMARK  107  A    between atoms: _272  and  _274
REMARK  108  A    between atoms: _274  and  _275
REMARK  109  A    between atoms: _274  and  _277
REMARK  110  A    between atoms: _277  and  _278
REMARK  111  A    between atoms: _283  and  _284
REMARK  112  A    between atoms: _286  and  _288
REMARK  113  A    between atoms: _288  and  _289
REMARK  114  A    between atoms: _288  and  _291
REMARK  115  A    between atoms: _291  and  _292
REMARK  116  A    between atoms: _297  and  _299
REMARK  117  A    between atoms: _299  and  _300
REMARK  118  A    between atoms: _299  and  _302
REMARK  119  A    between atoms: _302  and  _303
REMARK  120  A    between atoms: _308  and  _310
REMARK  121  A    between atoms: _310  and  _311
REMARK  122  A    between atoms: _310  and  _313
REMARK  123  A    between atoms: _313  and  _314
REMARK  124  A    between atoms: _314  and  _315
REMARK  125  A    between atoms: _320  and  _322
REMARK  126  A    between atoms: _322  and  _323
REMARK  127  A    between atoms: _322  and  _325
REMARK  128  A    between atoms: _325  and  _326
REMARK  129  A    between atoms: _331  and  _332
REMARK  130  A    between atoms: _334  and  _336
REMARK  131  A    between atoms: _336  and  _337
REMARK  132  A    between atoms: _336  and  _339
REMARK  133  A    between atoms: _339  and  _340
REMARK  134  A    between atoms: _343  and  _345
REMARK  135  A    between atoms: _345  and  _346
REMARK  136  A    between atoms: _349  and  _351
REMARK  137  A    between atoms: _351  and  _352
REMARK  138  A    between atoms: _351  and  _354
REMARK  139  A    between atoms: _354  and  _355
REMARK  140  A    between atoms: _357  and  _359
REMARK  141  A    between atoms: _359  and  _360
REMARK  142  A    between atoms: _359  and  _362
REMARK  143  A    between atoms: _362  and  _363
REMARK  144  A    between atoms: _363  and  _364
REMARK  145  A    between atoms: _366  and  _368
REMARK  146  A    between atoms: _368  and  _369
REMARK  147  A    between atoms: _368  and  _371
REMARK  148  A    between atoms: _371  and  _372
REMARK  149  A    between atoms: _374  and  _376
REMARK  150  A    between atoms: _376  and  _377
REMARK  151  A    between atoms: _376  and  _379
REMARK  152  A    between atoms: _379  and  _380
REMARK  153  A    between atoms: _385  and  _386
REMARK  154  A    between atoms: _388  and  _390
REMARK  155  A    between atoms: _390  and  _391
REMARK  156  A    between atoms: _390  and  _393
REMARK  157  A    between atoms: _393  and  _394
REMARK  158  A    between atoms: _396  and  _398
REMARK  159  A    between atoms: _398  and  _399
REMARK  160  A    between atoms: _402  and  _404
REMARK  161  A    between atoms: _404  and  _405
REMARK  162  A    between atoms: _404  and  _407
REMARK  163  A    between atoms: _407  and  _408
REMARK  164  A    between atoms: _418  and  _420
REMARK  165  A    between atoms: _420  and  _421
REMARK  166  A    between atoms: _420  and  _423
REMARK  167  A    between atoms: _426  and  _428
REMARK  168  A    between atoms: _428  and  _429
REMARK  169  A    between atoms: _428  and  _431
REMARK  170  A    between atoms: _431  and  _432
REMARK  171  A    between atoms: _435  and  _437
REMARK  172  A    between atoms: _437  and  _438
REMARK  173  A    between atoms: _437  and  _440
REMARK  174  A    between atoms: _440  and  _441
REMARK  175  A    between atoms: _446  and  _447
REMARK  176  A    between atoms: _449  and  _451
REMARK  177  A    between atoms: _451  and  _452
REMARK  178  A    between atoms: _451  and  _454
REMARK  179  A    between atoms: _457  and  _459
REMARK  180  A    between atoms: _459  and  _460
REMARK  181  A    between atoms: _459  and  _462
REMARK  182  A    between atoms: _462  and  _463
REMARK  183  A    between atoms: _469  and  _471
REMARK  184  A    between atoms: _471  and  _472
REMARK  185  A    between atoms: _471  and  _474
REMARK  186  A    between atoms: _474  and  _475
REMARK  187  A    between atoms: _475  and  _476
REMARK  188  A    between atoms: _481  and  _483
REMARK  189  A    between atoms: _483  and  _484
REMARK  190  A    between atoms: _483  and  _486
REMARK  191  A    between atoms: _486  and  _487
REMARK  192  A    between atoms: _489  and  _491
REMARK  193  A    between atoms: _491  and  _492
REMARK  194  A    between atoms: _491  and  _494
REMARK  195  A    between atoms: _494  and  _495
REMARK  196  A    between atoms: _500  and  _502
REMARK  197  A    between atoms: _502  and  _503
REMARK  198  A    between atoms: _502  and  _505
REMARK  199  A    between atoms: _505  and  _506
REMARK  200  A    between atoms: _516  and  _518
REMARK  201  A    between atoms: _518  and  _519
REMARK  202  A    between atoms: _518  and  _521
REMARK  203  A    between atoms: _521  and  _522
REMARK  204  A    between atoms: _525  and  _527
REMARK  205  A    between atoms: _527  and  _528
REMARK  206  A    between atoms: _527  and  _530
REMARK  207  A    between atoms: _530  and  _531
REMARK  208  A    between atoms: _536  and  _537
REMARK  209  A    between atoms: _539  and  _541
REMARK  210  A    between atoms: _541  and  _542
REMARK  211  A    between atoms: _541  and  _544
REMARK  212  A    between atoms: _544  and  _545
REMARK  213  A    between atoms: _548  and  _550
REMARK  214  A    between atoms: _550  and  _551
REMARK  215  A    between atoms: _550  and  _553
REMARK  216  A    between atoms: _553  and  _554
REMARK  217  A    between atoms: _554  and  _555
REMARK  218  A    between atoms: _558  and  _560
REMARK  219  A    between atoms: _560  and  _561
REMARK  220  A    between atoms: _560  and  _563
REMARK  221  A    between atoms: _563  and  _564
REMARK  222  A    between atoms: _569  and  _571
REMARK  223  A    between atoms: _571  and  _572
REMARK  224  A    between atoms: _574  and  _576
REMARK  225  A    between atoms: _576  and  _577
REMARK  226  A    between atoms: _576  and  _579
REMARK  227  A    between atoms: _579  and  _580
REMARK  228  A    between atoms: _580  and  _581
REMARK  229  A    between atoms: _583  and  _585
REMARK  230  A    between atoms: _585  and  _586
REMARK  231  A    between atoms: _585  and  _588
REMARK  232  A    between atoms: _588  and  _589
REMARK  233  A    between atoms: _592  and  _594
REMARK  234  A    between atoms: _594  and  _595
REMARK  235  A    between atoms: _594  and  _597
REMARK  236  A    between atoms: _597  and  _598
REMARK  237  A    between atoms: _608  and  _610
REMARK  238  A    between atoms: _610  and  _611
REMARK  239  A    between atoms: _610  and  _613
REMARK  240  A    between atoms: _613  and  _614
REMARK  241  A    between atoms: _616  and  _618
REMARK  242  A    between atoms: _618  and  _619
REMARK  243  A    between atoms: _618  and  _621
REMARK  244  A    between atoms: _621  and  _622
REMARK  245  A    between atoms: _627  and  _629
REMARK  246  A    between atoms: _629  and  _630
REMARK  247  A    between atoms: _629  and  _632
REMARK  248  A    between atoms: _632  and  _633
REMARK  249  A    between atoms: _639  and  _641
REMARK  250  A    between atoms: _641  and  _642
REMARK  251  A    between atoms: _641  and  _644
REMARK  252  A    between atoms: _644  and  _645
REMARK  253  A    between atoms: _645  and  _646
REMARK  254  A    between atoms: _649  and  _651
REMARK  255  A    between atoms: _651  and  _652
REMARK  256  A    between atoms: _651  and  _654
REMARK  257  A    between atoms: _654  and  _655
REMARK  258  A    between atoms: _665  and  _667
REMARK  259  A    between atoms: _667  and  _668
REMARK  260  A    between atoms: _667  and  _670
REMARK  261  A    between atoms: _670  and  _671
REMARK  262  A    between atoms: _674  and  _676
REMARK  263  A    between atoms: _676  and  _677
REMARK  264  A    between atoms: _676  and  _679
REMARK  265  A    between atoms: _679  and  _680
REMARK  266  A    between atoms: _682  and  _684
REMARK  267  A    between atoms: _684  and  _685
REMARK  268  A    between atoms: _684  and  _687
REMARK  269  A    between atoms: _687  and  _688
REMARK  270  A    between atoms: _690  and  _692
REMARK  271  A    between atoms: _692  and  _693
REMARK  272  A    between atoms: _692  and  _695
REMARK  273  A    between atoms: _695  and  _696
REMARK                            x       y       z     vdW  Elec       q    Type
REMARK                         _______ _______ _______ _____ _____    ______ ____
ROOT
ATOM      1  O   HOH     1       4.808   2.878  48.347  0.00  0.00    +0.000 OA
ENDROOT
TORSDOF 0
REMARK  Name = ../refined-set-2016/3f5j/3f5j_pocket.pdb
REMARK  273 active torsions:
REMARK  status: ('A' for Active; 'I' for Inactive)
REMARK    1  A    between atoms: _1  and  _3
REMARK    2  A    between atoms: _3  and  _4
REMARK    3  A    between atoms: _3  and  _6
REMARK    4  A    between atoms: _9  and  _11
REMARK    5  A    between atoms: _11  and  _12
REMARK    6  A    between atoms: _11  and  _14
REMARK    7  A    between atoms: _14  and  _15
REMARK    8  A    between atoms: _18  and  _20
REMARK    9  A    between atoms: _20  and  _21
REMARK   10  A    between atoms: _20  and  _23
REMARK   11  A    between atoms: _23  and  _24
REMARK   12  A    between atoms: _26  and  _28
REMARK   13  A    between atoms: _28  and  _29
REMARK   14  A    between atoms: _28  and  _31
REMARK   15  A    between atoms: _31  and  _32
REMARK   16  A    between atoms: _32  and  _33
REMARK   17  A    between atoms: _38  and  _40
REMARK   18  A    between atoms: _40  and  _41
REMARK   19  A    between atoms: _40  and  _43
REMARK   20  A    between atoms: _43  and  _44
REMARK   21  A    between atoms: _44  and  _45
REMARK   22  A    between atoms: _45  and  _46
REMARK   23  A    between atoms: _55  and  _57
REMARK   24  A    between atoms: _57  and  _58
REMARK   25  A    between atoms: _57  and  _60
REMARK   26  A    between atoms: _60  and  _61
REMARK   27  A    between atoms: _63  and  _65
REMARK   28  A    between atoms: _65  and  _66
REMARK   29  A    between atoms: _65  and  _68
REMARK   30  A    between atoms: _68  and  _69
REMARK   31  A    between atoms: _74  and  _76
REMARK   32  A    between atoms: _76  and  _77
REMARK   33  A    between atoms: _76  and  _79
REMARK   34  A    between atoms: _79  and  _80
REMARK   35  A    between atoms: _85  and  _87
REMARK   36  A    between atoms: _87  and  _88
REMARK   37  A    between atoms: _87  and  _90
REMARK   38  A    between atoms: _90  and  _91
REMARK   39  A    between atoms: _96  and  _97
REMARK   40  A    between atoms: _99  and  _101
REMARK   41  A    between atoms: _101  and  _102
REMARK   42  A    between atoms: _101  and  _104
REMARK   43  A    between atoms: _104  and  _105
REMARK   44  A    between atoms: _110  and  _112
REMARK   45  A    between atoms: _112  and  _113
REMARK   46  A    between atoms: _112  and  _115
REMARK   47  A    between atoms: _115  and  _116
REMARK   48  A    between atoms: _116  and  _117
REMARK   49  A    between atoms: _122  and  _124
REMARK   50  A    between atoms: _124  and  _125
REMARK   51  A    between atoms: _124  and  _127
REMARK   52  A    between atoms: _127  and  _128
REMARK   53  A    between atoms: _128  and  _129
REMARK   54  A    between atoms: _129  and  _130
REMARK   55  A    between atoms: _139  and  _141
REMARK   56  A    between atoms: _141  and  _142
REMARK   57  A    between atoms: _141  and  _144
REMARK   58  A    between atoms: _144  and  _145
REMARK   59  A    between atoms: _148  and  _150
REMARK   60  A    between atoms: _150  and  _151
REMARK   61  A    between atoms: _150  and  _153
REMARK   62  A    between atoms: _153  and  _154
REMARK   63  A    between atoms: _157  and  _159
REMARK   64  A    between atoms: _159  and  _160
REMARK   65  A    between atoms: _159  and  _162
REMARK   66  A    between atoms: _162  and  _163
REMARK   67  A    between atoms: _166  and  _168
REMARK   68  A    between atoms: _168  and  _169
REMARK   69  A    between atoms: _168  and  _171
REMARK   70  A    between atoms: _171  and  _172
REMARK   71  A    between atoms: _175  and  _177
REMARK   72  A    between atoms: _177  and  _178
REMARK   73  A    between atoms: _177  and  _180
REMARK   74  A    between atoms: _180  and  _181
REMARK   75  A    between atoms: _181  and  _182
REMARK   76  A    between atoms: _187  and  _189
REMARK   77  A    between atoms: _189  and  _190
REMARK   78  A    between atoms: _189  and  _192
REMARK   79  A    between atoms: _192  and  _193
REMARK   80  A    between atoms: _196  and  _198
REMARK   81  A    between atoms: _198  and  _199
REMARK   82  A    between atoms: _198  and  _201
REMARK   83  A    between atoms: _201  and  _202
REMARK   84  A    between atoms: _207  and  _209
REMARK   85  A    between atoms: _209  and  _210
REMARK   86  A    between atoms: _209  and  _212
REMARK   87  A    between atoms: _215  and  _217
REMARK   88  A    between atoms: _217  and  _218
REMARK   89  A    between atoms: _217  and  _220
REMARK   90  A    between atoms: _220  and  _221
REMARK   91  A    between atoms: _224  and  _226
REMARK   92  A    between atoms: _226  and  _227
REMARK   93  A    between atoms: _226  and  _229
REMARK   94  A    between atoms: _229  and  _230
REMARK   95  A    between atoms: _233  and  _235
REMARK   96  A    between atoms: _235  and  _236
REMARK   97  A    between atoms: _235  and  _238
REMARK   98  A    between atoms: _238  and  _239
REMARK   99  A    between atoms: _245  and  _247
REMARK  100  A    between atoms: _247  and  _248
REMARK  101  A    between atoms: _247  and  _250
REMARK  102  A    between atoms: _250  and  _251
REMARK  103  A    between atoms: _256  and  _258
REMARK  104  A    between atoms: _258  and  _259
REMARK  105  A    between atoms: _258  and  _261
REMARK  106  A    between atoms: _261  and  _262
REMARK  107  A    between atoms: _272  and  _274
REMARK  108  A    between atoms: _274  and  _275
REMARK  109  A    between atoms: _274  and  _277
REMARK  110  A    between atoms: _277  and  _278
REMARK  111  A    between atoms: _283  and  _284
REMARK  112  A    between atoms: _286  and  _288
REMARK  113  A    between atoms: _288  and  _289
REMARK  114  A    between atoms: _288  and  _291
REMARK  115  A    between atoms: _291  and  _292
REMARK  116  A    between atoms: _297  and  _299
REMARK  117  A    between atoms: _299  and  _300
REMARK  118  A    between atoms: _299  and  _302
REMARK  119  A    between atoms: _302  and  _303
REMARK  120  A    between atoms: _308  and  _310
REMARK  121  A    between atoms: _310  and  _311
REMARK  122  A    between atoms: _310  and  _313
REMARK  123  A    between atoms: _313  and  _314
REMARK  124  A    between atoms: _314  and  _315
REMARK  125  A    between atoms: _320  and  _322
REMARK  126  A    between atoms: _322  and  _323
REMARK  127  A    between atoms: _322  and  _325
REMARK  128  A    between atoms: _325  and  _326
REMARK  129  A    between atoms: _331  and  _332
REMARK  130  A    between atoms: _334  and  _336
REMARK  131  A    between atoms: _336  and  _337
REMARK  132  A    between atoms: _336  and  _339
REMARK  133  A    between atoms: _339  and  _340
REMARK  134  A    between atoms: _343  and  _345
REMARK  135  A    between atoms: _345  and  _346
REMARK  136  A    between atoms: _349  and  _351
REMARK  137  A    between atoms: _351  and  _352
REMARK  138  A    between atoms: _351  and  _354
REMARK  139  A    between atoms: _354  and  _355
REMARK  140  A    between atoms: _357  and  _359
REMARK  141  A    between atoms: _359  and  _360
REMARK  142  A    between atoms: _359  and  _362
REMARK  143  A    between atoms: _362  and  _363
REMARK  144  A    between atoms: _363  and  _364
REMARK  145  A    between atoms: _366  and  _368
REMARK  146  A    between atoms: _368  and  _369
REMARK  147  A    between atoms: _368  and  _371
REMARK  148  A    between atoms: _371  and  _372
REMARK  149  A    between atoms: _374  and  _376
REMARK  150  A    between atoms: _376  and  _377
REMARK  151  A    between atoms: _376  and  _379
REMARK  152  A    between atoms: _379  and  _380
REMARK  153  A    between atoms: _385  and  _386
REMARK  154  A    between atoms: _388  and  _390
REMARK  155  A    between atoms: _390  and  _391
REMARK  156  A    between atoms: _390  and  _393
REMARK  157  A    between atoms: _393  and  _394
REMARK  158  A    between atoms: _396  and  _398
REMARK  159  A    between atoms: _398  and  _399
REMARK  160  A    between atoms: _402  and  _404
REMARK  161  A    between atoms: _404  and  _405
REMARK  162  A    between atoms: _404  and  _407
REMARK  163  A    between atoms: _407  and  _408
REMARK  164  A    between atoms: _418  and  _420
REMARK  165  A    between atoms: _420  and  _421
REMARK  166  A    between atoms: _420  and  _423
REMARK  167  A    between atoms: _426  and  _428
REMARK  168  A    between atoms: _428  and  _429
REMARK  169  A    between atoms: _428  and  _431
REMARK  170  A    between atoms: _431  and  _432
REMARK  171  A    between atoms: _435  and  _437
REMARK  172  A    between atoms: _437  and  _438
REMARK  173  A    between atoms: _437  and  _440
REMARK  174  A    between atoms: _440  and  _441
REMARK  175  A    between atoms: _446  and  _447
REMARK  176  A    between atoms: _449  and  _451
REMARK  177  A    between atoms: _451  and  _452
REMARK  178  A    between atoms: _451  and  _454
REMARK  179  A    between atoms: _457  and  _459
REMARK  180  A    between atoms: _459  and  _460
REMARK  181  A    between atoms: _459  and  _462
REMARK  182  A    between atoms: _462  and  _463
REMARK  183  A    between atoms: _469  and  _471
REMARK  184  A    between atoms: _471  and  _472
REMARK  185  A    between atoms: _471  and  _474
REMARK  186  A    between atoms: _474  and  _475
REMARK  187  A    between atoms: _475  and  _476
REMARK  188  A    between atoms: _481  and  _483
REMARK  189  A    between atoms: _483  and  _484
REMARK  190  A    between atoms: _483  and  _486
REMARK  191  A    between atoms: _486  and  _487
REMARK  192  A    between atoms: _489  and  _491
REMARK  193  A    between atoms: _491  and  _492
REMARK  194  A    between atoms: _491  and  _494
REMARK  195  A    between atoms: _494  and  _495
REMARK  196  A    between atoms: _500  and  _502
REMARK  197  A    between atoms: _502  and  _503
REMARK  198  A    between atoms: _502  and  _505
REMARK  199  A    between atoms: _505  and  _506
REMARK  200  A    between atoms: _516  and  _518
REMARK  201  A    between atoms: _518  and  _519
REMARK  202  A    between atoms: _518  and  _521
REMARK  203  A    between atoms: _521  and  _522
REMARK  204  A    between atoms: _525  and  _527
REMARK  205  A    between atoms: _527  and  _528
REMARK  206  A    between atoms: _527  and  _530
REMARK  207  A    between atoms: _530  and  _531
REMARK  208  A    between atoms: _536  and  _537
REMARK  209  A    between atoms: _539  and  _541
REMARK  210  A    between atoms: _541  and  _542
REMARK  211  A    between atoms: _541  and  _544
REMARK  212  A    between atoms: _544  and  _545
REMARK  213  A    between atoms: _548  and  _550
REMARK  214  A    between atoms: _550  and  _551
REMARK  215  A    between atoms: _550  and  _553
REMARK  216  A    between atoms: _553  and  _554
REMARK  217  A    between atoms: _554  and  _555
REMARK  218  A    between atoms: _558  and  _560
REMARK  219  A    between atoms: _560  and  _561
REMARK  220  A    between atoms: _560  and  _563
REMARK  221  A    between atoms: _563  and  _564
REMARK  222  A    between atoms: _569  and  _571
REMARK  223  A    between atoms: _571  and  _572
REMARK  224  A    between atoms: _574  and  _576
REMARK  225  A    between atoms: _576  and  _577
REMARK  226  A    between atoms: _576  and  _579
REMARK  227  A    between atoms: _579  and  _580
REMARK  228  A    between atoms: _580  and  _581
REMARK  229  A    between atoms: _583  and  _585
REMARK  230  A    between atoms: _585  and  _586
REMARK  231  A    between atoms: _585  and  _588
REMARK  232  A    between atoms: _588  and  _589
REMARK  233  A    between atoms: _592  and  _594
REMARK  234  A    between atoms: _594  and  _595
REMARK  235  A    between atoms: _594  and  _597
REMARK  236  A    between atoms: _597  and  _598
REMARK  237  A    between atoms: _608  and  _610
REMARK  238  A    between atoms: _610  and  _611
REMARK  239  A    between atoms: _610  and  _613
REMARK  240  A    between atoms: _613  and  _614
REMARK  241  A    between atoms: _616  and  _618
REMARK  242  A    between atoms: _618  and  _619
REMARK  243  A    between atoms: _618  and  _621
REMARK  244  A    between atoms: _621  and  _622
REMARK  245  A    between atoms: _627  and  _629
REMARK  246  A    between atoms: _629  and  _630
REMARK  247  A    between atoms: _629  and  _632
REMARK  248  A    between atoms: _632  and  _633
REMARK  249  A    between atoms: _639  and  _641
REMARK  250  A    between atoms: _641  and  _642
REMARK  251  A    between atoms: _641  and  _644
REMARK  252  A    between atoms: _644  and  _645
REMARK  253  A    between atoms: _645  and  _646
REMARK  254  A    between atoms: _649  and  _651
REMARK  255  A    between atoms: _651  and  _652
REMARK  256  A    between atoms: _651  and  _654
REMARK  257  A    between atoms: _654  and  _655
REMARK  258  A    between atoms: _665  and  _667
REMARK  259  A    between atoms: _667  and  _668
REMARK  260  A    between atoms: _667  and  _670
REMARK  261  A    between atoms: _670  and  _671
REMARK  262  A    between atoms: _674  and  _676
REMARK  263  A    between atoms: _676  and  _677
REMARK  264  A    between atoms: _676  and  _679
REMARK  265  A    between atoms: _679  and  _680
REMARK  266  A    between atoms: _682  and  _684
REMARK  267  A    between atoms: _684  and  _685
REMARK  268  A    between atoms: _684  and  _687
REMARK  269  A    between atoms: _687  and  _688
REMARK  270  A    between atoms: _690  and  _692
REMARK  271  A    between atoms: _692  and  _693
REMARK  272  A    between atoms: _692  and  _695
REMARK  273  A    between atoms: _695  and  _696
REMARK                            x       y       z     vdW  Elec       q    Type
REMARK                         _______ _______ _______ _____ _____    ______ ____
ROOT
ATOM      1  O   HOH     1       3.334  -1.898  37.261  0.00  0.00    +0.000 OA
ENDROOT
TORSDOF 0
REMARK  Name = ../refined-set-2016/3f5j/3f5j_pocket.pdb
REMARK  273 active torsions:
REMARK  status: ('A' for Active; 'I' for Inactive)
REMARK    1  A    between atoms: _1  and  _3
REMARK    2  A    between atoms: _3  and  _4
REMARK    3  A    between atoms: _3  and  _6
REMARK    4  A    between atoms: _9  and  _11
REMARK    5  A    between atoms: _11  and  _12
REMARK    6  A    between atoms: _11  and  _14
REMARK    7  A    between atoms: _14  and  _15
REMARK    8  A    between atoms: _18  and  _20
REMARK    9  A    between atoms: _20  and  _21
REMARK   10  A    between atoms: _20  and  _23
REMARK   11  A    between atoms: _23  and  _24
REMARK   12  A    between atoms: _26  and  _28
REMARK   13  A    between atoms: _28  and  _29
REMARK   14  A    between atoms: _28  and  _31
REMARK   15  A    between atoms: _31  and  _32
REMARK   16  A    between atoms: _32  and  _33
REMARK   17  A    between atoms: _38  and  _40
REMARK   18  A    between atoms: _40  and  _41
REMARK   19  A    between atoms: _40  and  _43
REMARK   20  A    between atoms: _43  and  _44
REMARK   21  A    between atoms: _44  and  _45
REMARK   22  A    between atoms: _45  and  _46
REMARK   23  A    between atoms: _55  and  _57
REMARK   24  A    between atoms: _57  and  _58
REMARK   25  A    between atoms: _57  and  _60
REMARK   26  A    between atoms: _60  and  _61
REMARK   27  A    between atoms: _63  and  _65
REMARK   28  A    between atoms: _65  and  _66
REMARK   29  A    between atoms: _65  and  _68
REMARK   30  A    between atoms: _68  and  _69
REMARK   31  A    between atoms: _74  and  _76
REMARK   32  A    between atoms: _76  and  _77
REMARK   33  A    between atoms: _76  and  _79
REMARK   34  A    between atoms: _79  and  _80
REMARK   35  A    between atoms: _85  and  _87
REMARK   36  A    between atoms: _87  and  _88
REMARK   37  A    between atoms: _87  and  _90
REMARK   38  A    between atoms: _90  and  _91
REMARK   39  A    between atoms: _96  and  _97
REMARK   40  A    between atoms: _99  and  _101
REMARK   41  A    between atoms: _101  and  _102
REMARK   42  A    between atoms: _101  and  _104
REMARK   43  A    between atoms: _104  and  _105
REMARK   44  A    between atoms: _110  and  _112
REMARK   45  A    between atoms: _112  and  _113
REMARK   46  A    between atoms: _112  and  _115
REMARK   47  A    between atoms: _115  and  _116
REMARK   48  A    between atoms: _116  and  _117
REMARK   49  A    between atoms: _122  and  _124
REMARK   50  A    between atoms: _124  and  _125
REMARK   51  A    between atoms: _124  and  _127
REMARK   52  A    between atoms: _127  and  _128
REMARK   53  A    between atoms: _128  and  _129
REMARK   54  A    between atoms: _129  and  _130
REMARK   55  A    between atoms: _139  and  _141
REMARK   56  A    between atoms: _141  and  _142
REMARK   57  A    between atoms: _141  and  _144
REMARK   58  A    between atoms: _144  and  _145
REMARK   59  A    between atoms: _148  and  _150
REMARK   60  A    between atoms: _150  and  _151
REMARK   61  A    between atoms: _150  and  _153
REMARK   62  A    between atoms: _153  and  _154
REMARK   63  A    between atoms: _157  and  _159
REMARK   64  A    between atoms: _159  and  _160
REMARK   65  A    between atoms: _159  and  _162
REMARK   66  A    between atoms: _162  and  _163
REMARK   67  A    between atoms: _166  and  _168
REMARK   68  A    between atoms: _168  and  _169
REMARK   69  A    between atoms: _168  and  _171
REMARK   70  A    between atoms: _171  and  _172
REMARK   71  A    between atoms: _175  and  _177
REMARK   72  A    between atoms: _177  and  _178
REMARK   73  A    between atoms: _177  and  _180
REMARK   74  A    between atoms: _180  and  _181
REMARK   75  A    between atoms: _181  and  _182
REMARK   76  A    between atoms: _187  and  _189
REMARK   77  A    between atoms: _189  and  _190
REMARK   78  A    between atoms: _189  and  _192
REMARK   79  A    between atoms: _192  and  _193
REMARK   80  A    between atoms: _196  and  _198
REMARK   81  A    between atoms: _198  and  _199
REMARK   82  A    between atoms: _198  and  _201
REMARK   83  A    between atoms: _201  and  _202
REMARK   84  A    between atoms: _207  and  _209
REMARK   85  A    between atoms: _209  and  _210
REMARK   86  A    between atoms: _209  and  _212
REMARK   87  A    between atoms: _215  and  _217
REMARK   88  A    between atoms: _217  and  _218
REMARK   89  A    between atoms: _217  and  _220
REMARK   90  A    between atoms: _220  and  _221
REMARK   91  A    between atoms: _224  and  _226
REMARK   92  A    between atoms: _226  and  _227
REMARK   93  A    between atoms: _226  and  _229
REMARK   94  A    between atoms: _229  and  _230
REMARK   95  A    between atoms: _233  and  _235
REMARK   96  A    between atoms: _235  and  _236
REMARK   97  A    between atoms: _235  and  _238
REMARK   98  A    between atoms: _238  and  _239
REMARK   99  A    between atoms: _245  and  _247
REMARK  100  A    between atoms: _247  and  _248
REMARK  101  A    between atoms: _247  and  _250
REMARK  102  A    between atoms: _250  and  _251
REMARK  103  A    between atoms: _256  and  _258
REMARK  104  A    between atoms: _258  and  _259
REMARK  105  A    between atoms: _258  and  _261
REMARK  106  A    between atoms: _261  and  _262
REMARK  107  A    between atoms: _272  and  _274
REMARK  108  A    between atoms: _274  and  _275
REMARK  109  A    between atoms: _274  and  _277
REMARK  110  A    between atoms: _277  and  _278
REMARK  111  A    between atoms: _283  and  _284
REMARK  112  A    between atoms: _286  and  _288
REMARK  113  A    between atoms: _288  and  _289
REMARK  114  A    between atoms: _288  and  _291
REMARK  115  A    between atoms: _291  and  _292
REMARK  116  A    between atoms: _297  and  _299
REMARK  117  A    between atoms: _299  and  _300
REMARK  118  A    between atoms: _299  and  _302
REMARK  119  A    between atoms: _302  and  _303
REMARK  120  A    between atoms: _308  and  _310
REMARK  121  A    between atoms: _310  and  _311
REMARK  122  A    between atoms: _310  and  _313
REMARK  123  A    between atoms: _313  and  _314
REMARK  124  A    between atoms: _314  and  _315
REMARK  125  A    between atoms: _320  and  _322
REMARK  126  A    between atoms: _322  and  _323
REMARK  127  A    between atoms: _322  and  _325
REMARK  128  A    between atoms: _325  and  _326
REMARK  129  A    between atoms: _331  and  _332
REMARK  130  A    between atoms: _334  and  _336
REMARK  131  A    between atoms: _336  and  _337
REMARK  132  A    between atoms: _336  and  _339
REMARK  133  A    between atoms: _339  and  _340
REMARK  134  A    between atoms: _343  and  _345
REMARK  135  A    between atoms: _345  and  _346
REMARK  136  A    between atoms: _349  and  _351
REMARK  137  A    between atoms: _351  and  _352
REMARK  138  A    between atoms: _351  and  _354
REMARK  139  A    between atoms: _354  and  _355
REMARK  140  A    between atoms: _357  and  _359
REMARK  141  A    between atoms: _359  and  _360
REMARK  142  A    between atoms: _359  and  _362
REMARK  143  A    between atoms: _362  and  _363
REMARK  144  A    between atoms: _363  and  _364
REMARK  145  A    between atoms: _366  and  _368
REMARK  146  A    between atoms: _368  and  _369
REMARK  147  A    between atoms: _368  and  _371
REMARK  148  A    between atoms: _371  and  _372
REMARK  149  A    between atoms: _374  and  _376
REMARK  150  A    between atoms: _376  and  _377
REMARK  151  A    between atoms: _376  and  _379
REMARK  152  A    between atoms: _379  and  _380
REMARK  153  A    between atoms: _385  and  _386
REMARK  154  A    between atoms: _388  and  _390
REMARK  155  A    between atoms: _390  and  _391
REMARK  156  A    between atoms: _390  and  _393
REMARK  157  A    between atoms: _393  and  _394
REMARK  158  A    between atoms: _396  and  _398
REMARK  159  A    between atoms: _398  and  _399
REMARK  160  A    between atoms: _402  and  _404
REMARK  161  A    between atoms: _404  and  _405
REMARK  162  A    between atoms: _404  and  _407
REMARK  163  A    between atoms: _407  and  _408
REMARK  164  A    between atoms: _418  and  _420
REMARK  165  A    between atoms: _420  and  _421
REMARK  166  A    between atoms: _420  and  _423
REMARK  167  A    between atoms: _426  and  _428
REMARK  168  A    between atoms: _428  and  _429
REMARK  169  A    between atoms: _428  and  _431
REMARK  170  A    between atoms: _431  and  _432
REMARK  171  A    between atoms: _435  and  _437
REMARK  172  A    between atoms: _437  and  _438
REMARK  173  A    between atoms: _437  and  _440
REMARK  174  A    between atoms: _440  and  _441
REMARK  175  A    between atoms: _446  and  _447
REMARK  176  A    between atoms: _449  and  _451
REMARK  177  A    between atoms: _451  and  _452
REMARK  178  A    between atoms: _451  and  _454
REMARK  179  A    between atoms: _457  and  _459
REMARK  180  A    between atoms: _459  and  _460
REMARK  181  A    between atoms: _459  and  _462
REMARK  182  A    between atoms: _462  and  _463
REMARK  183  A    between atoms: _469  and  _471
REMARK  184  A    between atoms: _471  and  _472
REMARK  185  A    between atoms: _471  and  _474
REMARK  186  A    between atoms: _474  and  _475
REMARK  187  A    between atoms: _475  and  _476
REMARK  188  A    between atoms: _481  and  _483
REMARK  189  A    between atoms: _483  and  _484
REMARK  190  A    between atoms: _483  and  _486
REMARK  191  A    between atoms: _486  and  _487
REMARK  192  A    between atoms: _489  and  _491
REMARK  193  A    between atoms: _491  and  _492
REMARK  194  A    between atoms: _491  and  _494
REMARK  195  A    between atoms: _494  and  _495
REMARK  196  A    between atoms: _500  and  _502
REMARK  197  A    between atoms: _502  and  _503
REMARK  198  A    between atoms: _502  and  _505
REMARK  199  A    between atoms: _505  and  _506
REMARK  200  A    between atoms: _516  and  _518
REMARK  201  A    between atoms: _518  and  _519
REMARK  202  A    between atoms: _518  and  _521
REMARK  203  A    between atoms: _521  and  _522
REMARK  204  A    between atoms: _525  and  _527
REMARK  205  A    between atoms: _527  and  _528
REMARK  206  A    between atoms: _527  and  _530
REMARK  207  A    between atoms: _530  and  _531
REMARK  208  A    between atoms: _536  and  _537
REMARK  209  A    between atoms: _539  and  _541
REMARK  210  A    between atoms: _541  and  _542
REMARK  211  A    between atoms: _541  and  _544
REMARK  212  A    between atoms: _544  and  _545
REMARK  213  A    between atoms: _548  and  _550
REMARK  214  A    between atoms: _550  and  _551
REMARK  215  A    between atoms: _550  and  _553
REMARK  216  A    between atoms: _553  and  _554
REMARK  217  A    between atoms: _554  and  _555
REMARK  218  A    between atoms: _558  and  _560
REMARK  219  A    between atoms: _560  and  _561
REMARK  220  A    between atoms: _560  and  _563
REMARK  221  A    between atoms: _563  and  _564
REMARK  222  A    between atoms: _569  and  _571
REMARK  223  A    between atoms: _571  and  _572
REMARK  224  A    between atoms: _574  and  _576
REMARK  225  A    between atoms: _576  and  _577
REMARK  226  A    between atoms: _576  and  _579
REMARK  227  A    between atoms: _579  and  _580
REMARK  228  A    between atoms: _580  and  _581
REMARK  229  A    between atoms: _583  and  _585
REMARK  230  A    between atoms: _585  and  _586
REMARK  231  A    between atoms: _585  and  _588
REMARK  232  A    between atoms: _588  and  _589
REMARK  233  A    between atoms: _592  and  _594
REMARK  234  A    between atoms: _594  and  _595
REMARK  235  A    between atoms: _594  and  _597
REMARK  236  A    between atoms: _597  and  _598
REMARK  237  A    between atoms: _608  and  _610
REMARK  238  A    between atoms: _610  and  _611
REMARK  239  A    between atoms: _610  and  _613
REMARK  240  A    between atoms: _613  and  _614
REMARK  241  A    between atoms: _616  and  _618
REMARK  242  A    between atoms: _618  and  _619
REMARK  243  A    between atoms: _618  and  _621
REMARK  244  A    between atoms: _621  and  _622
REMARK  245  A    between atoms: _627  and  _629
REMARK  246  A    between atoms: _629  and  _630
REMARK  247  A    between atoms: _629  and  _632
REMARK  248  A    between atoms: _632  and  _633
REMARK  249  A    between atoms: _639  and  _641
REMARK  250  A    between atoms: _641  and  _642
REMARK  251  A    between atoms: _641  and  _644
REMARK  252  A    between atoms: _644  and  _645
REMARK  253  A    between atoms: _645  and  _646
REMARK  254  A    between atoms: _649  and  _651
REMARK  255  A    between atoms: _651  and  _652
REMARK  256  A    between atoms: _651  and  _654
REMARK  257  A    between atoms: _654  and  _655
REMARK  258  A    between atoms: _665  and  _667
REMARK  259  A    between atoms: _667  and  _668
REMARK  260  A    between atoms: _667  and  _670
REMARK  261  A    between atoms: _670  and  _671
REMARK  262  A    between atoms: _674  and  _676
REMARK  263  A    between atoms: _676  and  _677
REMARK  264  A    between atoms: _676  and  _679
REMARK  265  A    between atoms: _679  and  _680
REMARK  266  A    between atoms: _682  and  _684
REMARK  267  A    between atoms: _684  and  _685
REMARK  268  A    between atoms: _684  and  _687
REMARK  269  A    between atoms: _687  and  _688
REMARK  270  A    between atoms: _690  and  _692
REMARK  271  A    between atoms: _692  and  _693
REMARK  272  A    between atoms: _692  and  _695
REMARK  273  A    between atoms: _695  and  _696
REMARK                            x       y       z     vdW  Elec       q    Type
REMARK                         _______ _______ _______ _____ _____    ______ ____
ROOT
ATOM      1  O   HOH     1       3.879   0.331  49.529  0.00  0.00    +0.000 OA
ENDROOT
TORSDOF 0
REMARK  Name = ../refined-set-2016/3f5j/3f5j_pocket.pdb
REMARK  273 active torsions:
REMARK  status: ('A' for Active; 'I' for Inactive)
REMARK    1  A    between atoms: _1  and  _3
REMARK    2  A    between atoms: _3  and  _4
REMARK    3  A    between atoms: _3  and  _6
REMARK    4  A    between atoms: _9  and  _11
REMARK    5  A    between atoms: _11  and  _12
REMARK    6  A    between atoms: _11  and  _14
REMARK    7  A    between atoms: _14  and  _15
REMARK    8  A    between atoms: _18  and  _20
REMARK    9  A    between atoms: _20  and  _21
REMARK   10  A    between atoms: _20  and  _23
REMARK   11  A    between atoms: _23  and  _24
REMARK   12  A    between atoms: _26  and  _28
REMARK   13  A    between atoms: _28  and  _29
REMARK   14  A    between atoms: _28  and  _31
REMARK   15  A    between atoms: _31  and  _32
REMARK   16  A    between atoms: _32  and  _33
REMARK   17  A    between atoms: _38  and  _40
REMARK   18  A    between atoms: _40  and  _41
REMARK   19  A    between atoms: _40  and  _43
REMARK   20  A    between atoms: _43  and  _44
REMARK   21  A    between atoms: _44  and  _45
REMARK   22  A    between atoms: _45  and  _46
REMARK   23  A    between atoms: _55  and  _57
REMARK   24  A    between atoms: _57  and  _58
REMARK   25  A    between atoms: _57  and  _60
REMARK   26  A    between atoms: _60  and  _61
REMARK   27  A    between atoms: _63  and  _65
REMARK   28  A    between atoms: _65  and  _66
REMARK   29  A    between atoms: _65  and  _68
REMARK   30  A    between atoms: _68  and  _69
REMARK   31  A    between atoms: _74  and  _76
REMARK   32  A    between atoms: _76  and  _77
REMARK   33  A    between atoms: _76  and  _79
REMARK   34  A    between atoms: _79  and  _80
REMARK   35  A    between atoms: _85  and  _87
REMARK   36  A    between atoms: _87  and  _88
REMARK   37  A    between atoms: _87  and  _90
REMARK   38  A    between atoms: _90  and  _91
REMARK   39  A    between atoms: _96  and  _97
REMARK   40  A    between atoms: _99  and  _101
REMARK   41  A    between atoms: _101  and  _102
REMARK   42  A    between atoms: _101  and  _104
REMARK   43  A    between atoms: _104  and  _105
REMARK   44  A    between atoms: _110  and  _112
REMARK   45  A    between atoms: _112  and  _113
REMARK   46  A    between atoms: _112  and  _115
REMARK   47  A    between atoms: _115  and  _116
REMARK   48  A    between atoms: _116  and  _117
REMARK   49  A    between atoms: _122  and  _124
REMARK   50  A    between atoms: _124  and  _125
REMARK   51  A    between atoms: _124  and  _127
REMARK   52  A    between atoms: _127  and  _128
REMARK   53  A    between atoms: _128  and  _129
REMARK   54  A    between atoms: _129  and  _130
REMARK   55  A    between atoms: _139  and  _141
REMARK   56  A    between atoms: _141  and  _142
REMARK   57  A    between atoms: _141  and  _144
REMARK   58  A    between atoms: _144  and  _145
REMARK   59  A    between atoms: _148  and  _150
REMARK   60  A    between atoms: _150  and  _151
REMARK   61  A    between atoms: _150  and  _153
REMARK   62  A    between atoms: _153  and  _154
REMARK   63  A    between atoms: _157  and  _159
REMARK   64  A    between atoms: _159  and  _160
REMARK   65  A    between atoms: _159  and  _162
REMARK   66  A    between atoms: _162  and  _163
REMARK   67  A    between atoms: _166  and  _168
REMARK   68  A    between atoms: _168  and  _169
REMARK   69  A    between atoms: _168  and  _171
REMARK   70  A    between atoms: _171  and  _172
REMARK   71  A    between atoms: _175  and  _177
REMARK   72  A    between atoms: _177  and  _178
REMARK   73  A    between atoms: _177  and  _180
REMARK   74  A    between atoms: _180  and  _181
REMARK   75  A    between atoms: _181  and  _182
REMARK   76  A    between atoms: _187  and  _189
REMARK   77  A    between atoms: _189  and  _190
REMARK   78  A    between atoms: _189  and  _192
REMARK   79  A    between atoms: _192  and  _193
REMARK   80  A    between atoms: _196  and  _198
REMARK   81  A    between atoms: _198  and  _199
REMARK   82  A    between atoms: _198  and  _201
REMARK   83  A    between atoms: _201  and  _202
REMARK   84  A    between atoms: _207  and  _209
REMARK   85  A    between atoms: _209  and  _210
REMARK   86  A    between atoms: _209  and  _212
REMARK   87  A    between atoms: _215  and  _217
REMARK   88  A    between atoms: _217  and  _218
REMARK   89  A    between atoms: _217  and  _220
REMARK   90  A    between atoms: _220  and  _221
REMARK   91  A    between atoms: _224  and  _226
REMARK   92  A    between atoms: _226  and  _227
REMARK   93  A    between atoms: _226  and  _229
REMARK   94  A    between atoms: _229  and  _230
REMARK   95  A    between atoms: _233  and  _235
REMARK   96  A    between atoms: _235  and  _236
REMARK   97  A    between atoms: _235  and  _238
REMARK   98  A    between atoms: _238  and  _239
REMARK   99  A    between atoms: _245  and  _247
REMARK  100  A    between atoms: _247  and  _248
REMARK  101  A    between atoms: _247  and  _250
REMARK  102  A    between atoms: _250  and  _251
REMARK  103  A    between atoms: _256  and  _258
REMARK  104  A    between atoms: _258  and  _259
REMARK  105  A    between atoms: _258  and  _261
REMARK  106  A    between atoms: _261  and  _262
REMARK  107  A    between atoms: _272  and  _274
REMARK  108  A    between atoms: _274  and  _275
REMARK  109  A    between atoms: _274  and  _277
REMARK  110  A    between atoms: _277  and  _278
REMARK  111  A    between atoms: _283  and  _284
REMARK  112  A    between atoms: _286  and  _288
REMARK  113  A    between atoms: _288  and  _289
REMARK  114  A    between atoms: _288  and  _291
REMARK  115  A    between atoms: _291  and  _292
REMARK  116  A    between atoms: _297  and  _299
REMARK  117  A    between atoms: _299  and  _300
REMARK  118  A    between atoms: _299  and  _302
REMARK  119  A    between atoms: _302  and  _303
REMARK  120  A    between atoms: _308  and  _310
REMARK  121  A    between atoms: _310  and  _311
REMARK  122  A    between atoms: _310  and  _313
REMARK  123  A    between atoms: _313  and  _314
REMARK  124  A    between atoms: _314  and  _315
REMARK  125  A    between atoms: _320  and  _322
REMARK  126  A    between atoms: _322  and  _323
REMARK  127  A    between atoms: _322  and  _325
REMARK  128  A    between atoms: _325  and  _326
REMARK  129  A    between atoms: _331  and  _332
REMARK  130  A    between atoms: _334  and  _336
REMARK  131  A    between atoms: _336  and  _337
REMARK  132  A    between atoms: _336  and  _339
REMARK  133  A    between atoms: _339  and  _340
REMARK  134  A    between atoms: _343  and  _345
REMARK  135  A    between atoms: _345  and  _346
REMARK  136  A    between atoms: _349  and  _351
REMARK  137  A    between atoms: _351  and  _352
REMARK  138  A    between atoms: _351  and  _354
REMARK  139  A    between atoms: _354  and  _355
REMARK  140  A    between atoms: _357  and  _359
REMARK  141  A    between atoms: _359  and  _360
REMARK  142  A    between atoms: _359  and  _362
REMARK  143  A    between atoms: _362  and  _363
REMARK  144  A    between atoms: _363  and  _364
REMARK  145  A    between atoms: _366  and  _368
REMARK  146  A    between atoms: _368  and  _369
REMARK  147  A    between atoms: _368  and  _371
REMARK  148  A    between atoms: _371  and  _372
REMARK  149  A    between atoms: _374  and  _376
REMARK  150  A    between atoms: _376  and  _377
REMARK  151  A    between atoms: _376  and  _379
REMARK  152  A    between atoms: _379  and  _380
REMARK  153  A    between atoms: _385  and  _386
REMARK  154  A    between atoms: _388  and  _390
REMARK  155  A    between atoms: _390  and  _391
REMARK  156  A    between atoms: _390  and  _393
REMARK  157  A    between atoms: _393  and  _394
REMARK  158  A    between atoms: _396  and  _398
REMARK  159  A    between atoms: _398  and  _399
REMARK  160  A    between atoms: _402  and  _404
REMARK  161  A    between atoms: _404  and  _405
REMARK  162  A    between atoms: _404  and  _407
REMARK  163  A    between atoms: _407  and  _408
REMARK  164  A    between atoms: _418  and  _420
REMARK  165  A    between atoms: _420  and  _421
REMARK  166  A    between atoms: _420  and  _423
REMARK  167  A    between atoms: _426  and  _428
REMARK  168  A    between atoms: _428  and  _429
REMARK  169  A    between atoms: _428  and  _431
REMARK  170  A    between atoms: _431  and  _432
REMARK  171  A    between atoms: _435  and  _437
REMARK  172  A    between atoms: _437  and  _438
REMARK  173  A    between atoms: _437  and  _440
REMARK  174  A    between atoms: _440  and  _441
REMARK  175  A    between atoms: _446  and  _447
REMARK  176  A    between atoms: _449  and  _451
REMARK  177  A    between atoms: _451  and  _452
REMARK  178  A    between atoms: _451  and  _454
REMARK  179  A    between atoms: _457  and  _459
REMARK  180  A    between atoms: _459  and  _460
REMARK  181  A    between atoms: _459  and  _462
REMARK  182  A    between atoms: _462  and  _463
REMARK  183  A    between atoms: _469  and  _471
REMARK  184  A    between atoms: _471  and  _472
REMARK  185  A    between atoms: _471  and  _474
REMARK  186  A    between atoms: _474  and  _475
REMARK  187  A    between atoms: _475  and  _476
REMARK  188  A    between atoms: _481  and  _483
REMARK  189  A    between atoms: _483  and  _484
REMARK  190  A    between atoms: _483  and  _486
REMARK  191  A    between atoms: _486  and  _487
REMARK  192  A    between atoms: _489  and  _491
REMARK  193  A    between atoms: _491  and  _492
REMARK  194  A    between atoms: _491  and  _494
REMARK  195  A    between atoms: _494  and  _495
REMARK  196  A    between atoms: _500  and  _502
REMARK  197  A    between atoms: _502  and  _503
REMARK  198  A    between atoms: _502  and  _505
REMARK  199  A    between atoms: _505  and  _506
REMARK  200  A    between atoms: _516  and  _518
REMARK  201  A    between atoms: _518  and  _519
REMARK  202  A    between atoms: _518  and  _521
REMARK  203  A    between atoms: _521  and  _522
REMARK  204  A    between atoms: _525  and  _527
REMARK  205  A    between atoms: _527  and  _528
REMARK  206  A    between atoms: _527  and  _530
REMARK  207  A    between atoms: _530  and  _531
REMARK  208  A    between atoms: _536  and  _537
REMARK  209  A    between atoms: _539  and  _541
REMARK  210  A    between atoms: _541  and  _542
REMARK  211  A    between atoms: _541  and  _544
REMARK  212  A    between atoms: _544  and  _545
REMARK  213  A    between atoms: _548  and  _550
REMARK  214  A    between atoms: _550  and  _551
REMARK  215  A    between atoms: _550  and  _553
REMARK  216  A    between atoms: _553  and  _554
REMARK  217  A    between atoms: _554  and  _555
REMARK  218  A    between atoms: _558  and  _560
REMARK  219  A    between atoms: _560  and  _561
REMARK  220  A    between atoms: _560  and  _563
REMARK  221  A    between atoms: _563  and  _564
REMARK  222  A    between atoms: _569  and  _571
REMARK  223  A    between atoms: _571  and  _572
REMARK  224  A    between atoms: _574  and  _576
REMARK  225  A    between atoms: _576  and  _577
REMARK  226  A    between atoms: _576  and  _579
REMARK  227  A    between atoms: _579  and  _580
REMARK  228  A    between atoms: _580  and  _581
REMARK  229  A    between atoms: _583  and  _585
REMARK  230  A    between atoms: _585  and  _586
REMARK  231  A    between atoms: _585  and  _588
REMARK  232  A    between atoms: _588  and  _589
REMARK  233  A    between atoms: _592  and  _594
REMARK  234  A    between atoms: _594  and  _595
REMARK  235  A    between atoms: _594  and  _597
REMARK  236  A    between atoms: _597  and  _598
REMARK  237  A    between atoms: _608  and  _610
REMARK  238  A    between atoms: _610  and  _611
REMARK  239  A    between atoms: _610  and  _613
REMARK  240  A    between atoms: _613  and  _614
REMARK  241  A    between atoms: _616  and  _618
REMARK  242  A    between atoms: _618  and  _619
REMARK  243  A    between atoms: _618  and  _621
REMARK  244  A    between atoms: _621  and  _622
REMARK  245  A    between atoms: _627  and  _629
REMARK  246  A    between atoms: _629  and  _630
REMARK  247  A    between atoms: _629  and  _632
REMARK  248  A    between atoms: _632  and  _633
REMARK  249  A    between atoms: _639  and  _641
REMARK  250  A    between atoms: _641  and  _642
REMARK  251  A    between atoms: _641  and  _644
REMARK  252  A    between atoms: _644  and  _645
REMARK  253  A    between atoms: _645  and  _646
REMARK  254  A    between atoms: _649  and  _651
REMARK  255  A    between atoms: _651  and  _652
REMARK  256  A    between atoms: _651  and  _654
REMARK  257  A    between atoms: _654  and  _655
REMARK  258  A    between atoms: _665  and  _667
REMARK  259  A    between atoms: _667  and  _668
REMARK  260  A    between atoms: _667  and  _670
REMARK  261  A    between atoms: _670  and  _671
REMARK  262  A    between atoms: _674  and  _676
REMARK  263  A    between atoms: _676  and  _677
REMARK  264  A    between atoms: _676  and  _679
REMARK  265  A    between atoms: _679  and  _680
REMARK  266  A    between atoms: _682  and  _684
REMARK  267  A    between atoms: _684  and  _685
REMARK  268  A    between atoms: _684  and  _687
REMARK  269  A    between atoms: _687  and  _688
REMARK  270  A    between atoms: _690  and  _692
REMARK  271  A    between atoms: _692  and  _693
REMARK  272  A    between atoms: _692  and  _695
REMARK  273  A    between atoms: _695  and  _696
REMARK                            x       y       z     vdW  Elec       q    Type
REMARK                         _______ _______ _______ _____ _____    ______ ____
ROOT
ATOM      1  O   HOH     1      -6.129   3.574  40.798  0.00  0.00    +0.000 OA
ENDROOT
TORSDOF 0
REMARK  Name = ../refined-set-2016/3f5j/3f5j_pocket.pdb
REMARK  273 active torsions:
REMARK  status: ('A' for Active; 'I' for Inactive)
REMARK    1  A    between atoms: _1  and  _3
REMARK    2  A    between atoms: _3  and  _4
REMARK    3  A    between atoms: _3  and  _6
REMARK    4  A    between atoms: _9  and  _11
REMARK    5  A    between atoms: _11  and  _12
REMARK    6  A    between atoms: _11  and  _14
REMARK    7  A    between atoms: _14  and  _15
REMARK    8  A    between atoms: _18  and  _20
REMARK    9  A    between atoms: _20  and  _21
REMARK   10  A    between atoms: _20  and  _23
REMARK   11  A    between atoms: _23  and  _24
REMARK   12  A    between atoms: _26  and  _28
REMARK   13  A    between atoms: _28  and  _29
REMARK   14  A    between atoms: _28  and  _31
REMARK   15  A    between atoms: _31  and  _32
REMARK   16  A    between atoms: _32  and  _33
REMARK   17  A    between atoms: _38  and  _40
REMARK   18  A    between atoms: _40  and  _41
REMARK   19  A    between atoms: _40  and  _43
REMARK   20  A    between atoms: _43  and  _44
REMARK   21  A    between atoms: _44  and  _45
REMARK   22  A    between atoms: _45  and  _46
REMARK   23  A    between atoms: _55  and  _57
REMARK   24  A    between atoms: _57  and  _58
REMARK   25  A    between atoms: _57  and  _60
REMARK   26  A    between atoms: _60  and  _61
REMARK   27  A    between atoms: _63  and  _65
REMARK   28  A    between atoms: _65  and  _66
REMARK   29  A    between atoms: _65  and  _68
REMARK   30  A    between atoms: _68  and  _69
REMARK   31  A    between atoms: _74  and  _76
REMARK   32  A    between atoms: _76  and  _77
REMARK   33  A    between atoms: _76  and  _79
REMARK   34  A    between atoms: _79  and  _80
REMARK   35  A    between atoms: _85  and  _87
REMARK   36  A    between atoms: _87  and  _88
REMARK   37  A    between atoms: _87  and  _90
REMARK   38  A    between atoms: _90  and  _91
REMARK   39  A    between atoms: _96  and  _97
REMARK   40  A    between atoms: _99  and  _101
REMARK   41  A    between atoms: _101  and  _102
REMARK   42  A    between atoms: _101  and  _104
REMARK   43  A    between atoms: _104  and  _105
REMARK   44  A    between atoms: _110  and  _112
REMARK   45  A    between atoms: _112  and  _113
REMARK   46  A    between atoms: _112  and  _115
REMARK   47  A    between atoms: _115  and  _116
REMARK   48  A    between atoms: _116  and  _117
REMARK   49  A    between atoms: _122  and  _124
REMARK   50  A    between atoms: _124  and  _125
REMARK   51  A    between atoms: _124  and  _127
REMARK   52  A    between atoms: _127  and  _128
REMARK   53  A    between atoms: _128  and  _129
REMARK   54  A    between atoms: _129  and  _130
REMARK   55  A    between atoms: _139  and  _141
REMARK   56  A    between atoms: _141  and  _142
REMARK   57  A    between atoms: _141  and  _144
REMARK   58  A    between atoms: _144  and  _145
REMARK   59  A    between atoms: _148  and  _150
REMARK   60  A    between atoms: _150  and  _151
REMARK   61  A    between atoms: _150  and  _153
REMARK   62  A    between atoms: _153  and  _154
REMARK   63  A    between atoms: _157  and  _159
REMARK   64  A    between atoms: _159  and  _160
REMARK   65  A    between atoms: _159  and  _162
REMARK   66  A    between atoms: _162  and  _163
REMARK   67  A    between atoms: _166  and  _168
REMARK   68  A    between atoms: _168  and  _169
REMARK   69  A    between atoms: _168  and  _171
REMARK   70  A    between atoms: _171  and  _172
REMARK   71  A    between atoms: _175  and  _177
REMARK   72  A    between atoms: _177  and  _178
REMARK   73  A    between atoms: _177  and  _180
REMARK   74  A    between atoms: _180  and  _181
REMARK   75  A    between atoms: _181  and  _182
REMARK   76  A    between atoms: _187  and  _189
REMARK   77  A    between atoms: _189  and  _190
REMARK   78  A    between atoms: _189  and  _192
REMARK   79  A    between atoms: _192  and  _193
REMARK   80  A    between atoms: _196  and  _198
REMARK   81  A    between atoms: _198  and  _199
REMARK   82  A    between atoms: _198  and  _201
REMARK   83  A    between atoms: _201  and  _202
REMARK   84  A    between atoms: _207  and  _209
REMARK   85  A    between atoms: _209  and  _210
REMARK   86  A    between atoms: _209  and  _212
REMARK   87  A    between atoms: _215  and  _217
REMARK   88  A    between atoms: _217  and  _218
REMARK   89  A    between atoms: _217  and  _220
REMARK   90  A    between atoms: _220  and  _221
REMARK   91  A    between atoms: _224  and  _226
REMARK   92  A    between atoms: _226  and  _227
REMARK   93  A    between atoms: _226  and  _229
REMARK   94  A    between atoms: _229  and  _230
REMARK   95  A    between atoms: _233  and  _235
REMARK   96  A    between atoms: _235  and  _236
REMARK   97  A    between atoms: _235  and  _238
REMARK   98  A    between atoms: _238  and  _239
REMARK   99  A    between atoms: _245  and  _247
REMARK  100  A    between atoms: _247  and  _248
REMARK  101  A    between atoms: _247  and  _250
REMARK  102  A    between atoms: _250  and  _251
REMARK  103  A    between atoms: _256  and  _258
REMARK  104  A    between atoms: _258  and  _259
REMARK  105  A    between atoms: _258  and  _261
REMARK  106  A    between atoms: _261  and  _262
REMARK  107  A    between atoms: _272  and  _274
REMARK  108  A    between atoms: _274  and  _275
REMARK  109  A    between atoms: _274  and  _277
REMARK  110  A    between atoms: _277  and  _278
REMARK  111  A    between atoms: _283  and  _284
REMARK  112  A    between atoms: _286  and  _288
REMARK  113  A    between atoms: _288  and  _289
REMARK  114  A    between atoms: _288  and  _291
REMARK  115  A    between atoms: _291  and  _292
REMARK  116  A    between atoms: _297  and  _299
REMARK  117  A    between atoms: _299  and  _300
REMARK  118  A    between atoms: _299  and  _302
REMARK  119  A    between atoms: _302  and  _303
REMARK  120  A    between atoms: _308  and  _310
REMARK  121  A    between atoms: _310  and  _311
REMARK  122  A    between atoms: _310  and  _313
REMARK  123  A    between atoms: _313  and  _314
REMARK  124  A    between atoms: _314  and  _315
REMARK  125  A    between atoms: _320  and  _322
REMARK  126  A    between atoms: _322  and  _323
REMARK  127  A    between atoms: _322  and  _325
REMARK  128  A    between atoms: _325  and  _326
REMARK  129  A    between atoms: _331  and  _332
REMARK  130  A    between atoms: _334  and  _336
REMARK  131  A    between atoms: _336  and  _337
REMARK  132  A    between atoms: _336  and  _339
REMARK  133  A    between atoms: _339  and  _340
REMARK  134  A    between atoms: _343  and  _345
REMARK  135  A    between atoms: _345  and  _346
REMARK  136  A    between atoms: _349  and  _351
REMARK  137  A    between atoms: _351  and  _352
REMARK  138  A    between atoms: _351  and  _354
REMARK  139  A    between atoms: _354  and  _355
REMARK  140  A    between atoms: _357  and  _359
REMARK  141  A    between atoms: _359  and  _360
REMARK  142  A    between atoms: _359  and  _362
REMARK  143  A    between atoms: _362  and  _363
REMARK  144  A    between atoms: _363  and  _364
REMARK  145  A    between atoms: _366  and  _368
REMARK  146  A    between atoms: _368  and  _369
REMARK  147  A    between atoms: _368  and  _371
REMARK  148  A    between atoms: _371  and  _372
REMARK  149  A    between atoms: _374  and  _376
REMARK  150  A    between atoms: _376  and  _377
REMARK  151  A    between atoms: _376  and  _379
REMARK  152  A    between atoms: _379  and  _380
REMARK  153  A    between atoms: _385  and  _386
REMARK  154  A    between atoms: _388  and  _390
REMARK  155  A    between atoms: _390  and  _391
REMARK  156  A    between atoms: _390  and  _393
REMARK  157  A    between atoms: _393  and  _394
REMARK  158  A    between atoms: _396  and  _398
REMARK  159  A    between atoms: _398  and  _399
REMARK  160  A    between atoms: _402  and  _404
REMARK  161  A    between atoms: _404  and  _405
REMARK  162  A    between atoms: _404  and  _407
REMARK  163  A    between atoms: _407  and  _408
REMARK  164  A    between atoms: _418  and  _420
REMARK  165  A    between atoms: _420  and  _421
REMARK  166  A    between atoms: _420  and  _423
REMARK  167  A    between atoms: _426  and  _428
REMARK  168  A    between atoms: _428  and  _429
REMARK  169  A    between atoms: _428  and  _431
REMARK  170  A    between atoms: _431  and  _432
REMARK  171  A    between atoms: _435  and  _437
REMARK  172  A    between atoms: _437  and  _438
REMARK  173  A    between atoms: _437  and  _440
REMARK  174  A    between atoms: _440  and  _441
REMARK  175  A    between atoms: _446  and  _447
REMARK  176  A    between atoms: _449  and  _451
REMARK  177  A    between atoms: _451  and  _452
REMARK  178  A    between atoms: _451  and  _454
REMARK  179  A    between atoms: _457  and  _459
REMARK  180  A    between atoms: _459  and  _460
REMARK  181  A    between atoms: _459  and  _462
REMARK  182  A    between atoms: _462  and  _463
REMARK  183  A    between atoms: _469  and  _471
REMARK  184  A    between atoms: _471  and  _472
REMARK  185  A    between atoms: _471  and  _474
REMARK  186  A    between atoms: _474  and  _475
REMARK  187  A    between atoms: _475  and  _476
REMARK  188  A    between atoms: _481  and  _483
REMARK  189  A    between atoms: _483  and  _484
REMARK  190  A    between atoms: _483  and  _486
REMARK  191  A    between atoms: _486  and  _487
REMARK  192  A    between atoms: _489  and  _491
REMARK  193  A    between atoms: _491  and  _492
REMARK  194  A    between atoms: _491  and  _494
REMARK  195  A    between atoms: _494  and  _495
REMARK  196  A    between atoms: _500  and  _502
REMARK  197  A    between atoms: _502  and  _503
REMARK  198  A    between atoms: _502  and  _505
REMARK  199  A    between atoms: _505  and  _506
REMARK  200  A    between atoms: _516  and  _518
REMARK  201  A    between atoms: _518  and  _519
REMARK  202  A    between atoms: _518  and  _521
REMARK  203  A    between atoms: _521  and  _522
REMARK  204  A    between atoms: _525  and  _527
REMARK  205  A    between atoms: _527  and  _528
REMARK  206  A    between atoms: _527  and  _530
REMARK  207  A    between atoms: _530  and  _531
REMARK  208  A    between atoms: _536  and  _537
REMARK  209  A    between atoms: _539  and  _541
REMARK  210  A    between atoms: _541  and  _542
REMARK  211  A    between atoms: _541  and  _544
REMARK  212  A    between atoms: _544  and  _545
REMARK  213  A    between atoms: _548  and  _550
REMARK  214  A    between atoms: _550  and  _551
REMARK  215  A    between atoms: _550  and  _553
REMARK  216  A    between atoms: _553  and  _554
REMARK  217  A    between atoms: _554  and  _555
REMARK  218  A    between atoms: _558  and  _560
REMARK  219  A    between atoms: _560  and  _561
REMARK  220  A    between atoms: _560  and  _563
REMARK  221  A    between atoms: _563  and  _564
REMARK  222  A    between atoms: _569  and  _571
REMARK  223  A    between atoms: _571  and  _572
REMARK  224  A    between atoms: _574  and  _576
REMARK  225  A    between atoms: _576  and  _577
REMARK  226  A    between atoms: _576  and  _579
REMARK  227  A    between atoms: _579  and  _580
REMARK  228  A    between atoms: _580  and  _581
REMARK  229  A    between atoms: _583  and  _585
REMARK  230  A    between atoms: _585  and  _586
REMARK  231  A    between atoms: _585  and  _588
REMARK  232  A    between atoms: _588  and  _589
REMARK  233  A    between atoms: _592  and  _594
REMARK  234  A    between atoms: _594  and  _595
REMARK  235  A    between atoms: _594  and  _597
REMARK  236  A    between atoms: _597  and  _598
REMARK  237  A    between atoms: _608  and  _610
REMARK  238  A    between atoms: _610  and  _611
REMARK  239  A    between atoms: _610  and  _613
REMARK  240  A    between atoms: _613  and  _614
REMARK  241  A    between atoms: _616  and  _618
REMARK  242  A    between atoms: _618  and  _619
REMARK  243  A    between atoms: _618  and  _621
REMARK  244  A    between atoms: _621  and  _622
REMARK  245  A    between atoms: _627  and  _629
REMARK  246  A    between atoms: _629  and  _630
REMARK  247  A    between atoms: _629  and  _632
REMARK  248  A    between atoms: _632  and  _633
REMARK  249  A    between atoms: _639  and  _641
REMARK  250  A    between atoms: _641  and  _642
REMARK  251  A    between atoms: _641  and  _644
REMARK  252  A    between atoms: _644  and  _645
REMARK  253  A    between atoms: _645  and  _646
REMARK  254  A    between atoms: _649  and  _651
REMARK  255  A    between atoms: _651  and  _652
REMARK  256  A    between atoms: _651  and  _654
REMARK  257  A    between atoms: _654  and  _655
REMARK  258  A    between atoms: _665  and  _667
REMARK  259  A    between atoms: _667  and  _668
REMARK  260  A    between atoms: _667  and  _670
REMARK  261  A    between atoms: _670  and  _671
REMARK  262  A    between atoms: _674  and  _676
REMARK  263  A    between atoms: _676  and  _677
REMARK  264  A    between atoms: _676  and  _679
REMARK  265  A    between atoms: _679  and  _680
REMARK  266  A    between atoms: _682  and  _684
REMARK  267  A    between atoms: _684  and  _685
REMARK  268  A    between atoms: _684  and  _687
REMARK  269  A    between atoms: _687  and  _688
REMARK  270  A    between atoms: _690  and  _692
REMARK  271  A    between atoms: _692  and  _693
REMARK  272  A    between atoms: _692  and  _695
REMARK  273  A    between atoms: _695  and  _696
REMARK                            x       y       z     vdW  Elec       q    Type
REMARK                         _______ _______ _______ _____ _____    ______ ____
ROOT
ATOM      1  O   HOH     1       2.622  -4.105  50.843  0.00  0.00    +0.000 OA
ENDROOT
TORSDOF 0
REMARK  Name = ../refined-set-2016/3f5j/3f5j_pocket.pdb
REMARK  273 active torsions:
REMARK  status: ('A' for Active; 'I' for Inactive)
REMARK    1  A    between atoms: _1  and  _3
REMARK    2  A    between atoms: _3  and  _4
REMARK    3  A    between atoms: _3  and  _6
REMARK    4  A    between atoms: _9  and  _11
REMARK    5  A    between atoms: _11  and  _12
REMARK    6  A    between atoms: _11  and  _14
REMARK    7  A    between atoms: _14  and  _15
REMARK    8  A    between atoms: _18  and  _20
REMARK    9  A    between atoms: _20  and  _21
REMARK   10  A    between atoms: _20  and  _23
REMARK   11  A    between atoms: _23  and  _24
REMARK   12  A    between atoms: _26  and  _28
REMARK   13  A    between atoms: _28  and  _29
REMARK   14  A    between atoms: _28  and  _31
REMARK   15  A    between atoms: _31  and  _32
REMARK   16  A    between atoms: _32  and  _33
REMARK   17  A    between atoms: _38  and  _40
REMARK   18  A    between atoms: _40  and  _41
REMARK   19  A    between atoms: _40  and  _43
REMARK   20  A    between atoms: _43  and  _44
REMARK   21  A    between atoms: _44  and  _45
REMARK   22  A    between atoms: _45  and  _46
REMARK   23  A    between atoms: _55  and  _57
REMARK   24  A    between atoms: _57  and  _58
REMARK   25  A    between atoms: _57  and  _60
REMARK   26  A    between atoms: _60  and  _61
REMARK   27  A    between atoms: _63  and  _65
REMARK   28  A    between atoms: _65  and  _66
REMARK   29  A    between atoms: _65  and  _68
REMARK   30  A    between atoms: _68  and  _69
REMARK   31  A    between atoms: _74  and  _76
REMARK   32  A    between atoms: _76  and  _77
REMARK   33  A    between atoms: _76  and  _79
REMARK   34  A    between atoms: _79  and  _80
REMARK   35  A    between atoms: _85  and  _87
REMARK   36  A    between atoms: _87  and  _88
REMARK   37  A    between atoms: _87  and  _90
REMARK   38  A    between atoms: _90  and  _91
REMARK   39  A    between atoms: _96  and  _97
REMARK   40  A    between atoms: _99  and  _101
REMARK   41  A    between atoms: _101  and  _102
REMARK   42  A    between atoms: _101  and  _104
REMARK   43  A    between atoms: _104  and  _105
REMARK   44  A    between atoms: _110  and  _112
REMARK   45  A    between atoms: _112  and  _113
REMARK   46  A    between atoms: _112  and  _115
REMARK   47  A    between atoms: _115  and  _116
REMARK   48  A    between atoms: _116  and  _117
REMARK   49  A    between atoms: _122  and  _124
REMARK   50  A    between atoms: _124  and  _125
REMARK   51  A    between atoms: _124  and  _127
REMARK   52  A    between atoms: _127  and  _128
REMARK   53  A    between atoms: _128  and  _129
REMARK   54  A    between atoms: _129  and  _130
REMARK   55  A    between atoms: _139  and  _141
REMARK   56  A    between atoms: _141  and  _142
REMARK   57  A    between atoms: _141  and  _144
REMARK   58  A    between atoms: _144  and  _145
REMARK   59  A    between atoms: _148  and  _150
REMARK   60  A    between atoms: _150  and  _151
REMARK   61  A    between atoms: _150  and  _153
REMARK   62  A    between atoms: _153  and  _154
REMARK   63  A    between atoms: _157  and  _159
REMARK   64  A    between atoms: _159  and  _160
REMARK   65  A    between atoms: _159  and  _162
REMARK   66  A    between atoms: _162  and  _163
REMARK   67  A    between atoms: _166  and  _168
REMARK   68  A    between atoms: _168  and  _169
REMARK   69  A    between atoms: _168  and  _171
REMARK   70  A    between atoms: _171  and  _172
REMARK   71  A    between atoms: _175  and  _177
REMARK   72  A    between atoms: _177  and  _178
REMARK   73  A    between atoms: _177  and  _180
REMARK   74  A    between atoms: _180  and  _181
REMARK   75  A    between atoms: _181  and  _182
REMARK   76  A    between atoms: _187  and  _189
REMARK   77  A    between atoms: _189  and  _190
REMARK   78  A    between atoms: _189  and  _192
REMARK   79  A    between atoms: _192  and  _193
REMARK   80  A    between atoms: _196  and  _198
REMARK   81  A    between atoms: _198  and  _199
REMARK   82  A    between atoms: _198  and  _201
REMARK   83  A    between atoms: _201  and  _202
REMARK   84  A    between atoms: _207  and  _209
REMARK   85  A    between atoms: _209  and  _210
REMARK   86  A    between atoms: _209  and  _212
REMARK   87  A    between atoms: _215  and  _217
REMARK   88  A    between atoms: _217  and  _218
REMARK   89  A    between atoms: _217  and  _220
REMARK   90  A    between atoms: _220  and  _221
REMARK   91  A    between atoms: _224  and  _226
REMARK   92  A    between atoms: _226  and  _227
REMARK   93  A    between atoms: _226  and  _229
REMARK   94  A    between atoms: _229  and  _230
REMARK   95  A    between atoms: _233  and  _235
REMARK   96  A    between atoms: _235  and  _236
REMARK   97  A    between atoms: _235  and  _238
REMARK   98  A    between atoms: _238  and  _239
REMARK   99  A    between atoms: _245  and  _247
REMARK  100  A    between atoms: _247  and  _248
REMARK  101  A    between atoms: _247  and  _250
REMARK  102  A    between atoms: _250  and  _251
REMARK  103  A    between atoms: _256  and  _258
REMARK  104  A    between atoms: _258  and  _259
REMARK  105  A    between atoms: _258  and  _261
REMARK  106  A    between atoms: _261  and  _262
REMARK  107  A    between atoms: _272  and  _274
REMARK  108  A    between atoms: _274  and  _275
REMARK  109  A    between atoms: _274  and  _277
REMARK  110  A    between atoms: _277  and  _278
REMARK  111  A    between atoms: _283  and  _284
REMARK  112  A    between atoms: _286  and  _288
REMARK  113  A    between atoms: _288  and  _289
REMARK  114  A    between atoms: _288  and  _291
REMARK  115  A    between atoms: _291  and  _292
REMARK  116  A    between atoms: _297  and  _299
REMARK  117  A    between atoms: _299  and  _300
REMARK  118  A    between atoms: _299  and  _302
REMARK  119  A    between atoms: _302  and  _303
REMARK  120  A    between atoms: _308  and  _310
REMARK  121  A    between atoms: _310  and  _311
REMARK  122  A    between atoms: _310  and  _313
REMARK  123  A    between atoms: _313  and  _314
REMARK  124  A    between atoms: _314  and  _315
REMARK  125  A    between atoms: _320  and  _322
REMARK  126  A    between atoms: _322  and  _323
REMARK  127  A    between atoms: _322  and  _325
REMARK  128  A    between atoms: _325  and  _326
REMARK  129  A    between atoms: _331  and  _332
REMARK  130  A    between atoms: _334  and  _336
REMARK  131  A    between atoms: _336  and  _337
REMARK  132  A    between atoms: _336  and  _339
REMARK  133  A    between atoms: _339  and  _340
REMARK  134  A    between atoms: _343  and  _345
REMARK  135  A    between atoms: _345  and  _346
REMARK  136  A    between atoms: _349  and  _351
REMARK  137  A    between atoms: _351  and  _352
REMARK  138  A    between atoms: _351  and  _354
REMARK  139  A    between atoms: _354  and  _355
REMARK  140  A    between atoms: _357  and  _359
REMARK  141  A    between atoms: _359  and  _360
REMARK  142  A    between atoms: _359  and  _362
REMARK  143  A    between atoms: _362  and  _363
REMARK  144  A    between atoms: _363  and  _364
REMARK  145  A    between atoms: _366  and  _368
REMARK  146  A    between atoms: _368  and  _369
REMARK  147  A    between atoms: _368  and  _371
REMARK  148  A    between atoms: _371  and  _372
REMARK  149  A    between atoms: _374  and  _376
REMARK  150  A    between atoms: _376  and  _377
REMARK  151  A    between atoms: _376  and  _379
REMARK  152  A    between atoms: _379  and  _380
REMARK  153  A    between atoms: _385  and  _386
REMARK  154  A    between atoms: _388  and  _390
REMARK  155  A    between atoms: _390  and  _391
REMARK  156  A    between atoms: _390  and  _393
REMARK  157  A    between atoms: _393  and  _394
REMARK  158  A    between atoms: _396  and  _398
REMARK  159  A    between atoms: _398  and  _399
REMARK  160  A    between atoms: _402  and  _404
REMARK  161  A    between atoms: _404  and  _405
REMARK  162  A    between atoms: _404  and  _407
REMARK  163  A    between atoms: _407  and  _408
REMARK  164  A    between atoms: _418  and  _420
REMARK  165  A    between atoms: _420  and  _421
REMARK  166  A    between atoms: _420  and  _423
REMARK  167  A    between atoms: _426  and  _428
REMARK  168  A    between atoms: _428  and  _429
REMARK  169  A    between atoms: _428  and  _431
REMARK  170  A    between atoms: _431  and  _432
REMARK  171  A    between atoms: _435  and  _437
REMARK  172  A    between atoms: _437  and  _438
REMARK  173  A    between atoms: _437  and  _440
REMARK  174  A    between atoms: _440  and  _441
REMARK  175  A    between atoms: _446  and  _447
REMARK  176  A    between atoms: _449  and  _451
REMARK  177  A    between atoms: _451  and  _452
REMARK  178  A    between atoms: _451  and  _454
REMARK  179  A    between atoms: _457  and  _459
REMARK  180  A    between atoms: _459  and  _460
REMARK  181  A    between atoms: _459  and  _462
REMARK  182  A    between atoms: _462  and  _463
REMARK  183  A    between atoms: _469  and  _471
REMARK  184  A    between atoms: _471  and  _472
REMARK  185  A    between atoms: _471  and  _474
REMARK  186  A    between atoms: _474  and  _475
REMARK  187  A    between atoms: _475  and  _476
REMARK  188  A    between atoms: _481  and  _483
REMARK  189  A    between atoms: _483  and  _484
REMARK  190  A    between atoms: _483  and  _486
REMARK  191  A    between atoms: _486  and  _487
REMARK  192  A    between atoms: _489  and  _491
REMARK  193  A    between atoms: _491  and  _492
REMARK  194  A    between atoms: _491  and  _494
REMARK  195  A    between atoms: _494  and  _495
REMARK  196  A    between atoms: _500  and  _502
REMARK  197  A    between atoms: _502  and  _503
REMARK  198  A    between atoms: _502  and  _505
REMARK  199  A    between atoms: _505  and  _506
REMARK  200  A    between atoms: _516  and  _518
REMARK  201  A    between atoms: _518  and  _519
REMARK  202  A    between atoms: _518  and  _521
REMARK  203  A    between atoms: _521  and  _522
REMARK  204  A    between atoms: _525  and  _527
REMARK  205  A    between atoms: _527  and  _528
REMARK  206  A    between atoms: _527  and  _530
REMARK  207  A    between atoms: _530  and  _531
REMARK  208  A    between atoms: _536  and  _537
REMARK  209  A    between atoms: _539  and  _541
REMARK  210  A    between atoms: _541  and  _542
REMARK  211  A    between atoms: _541  and  _544
REMARK  212  A    between atoms: _544  and  _545
REMARK  213  A    between atoms: _548  and  _550
REMARK  214  A    between atoms: _550  and  _551
REMARK  215  A    between atoms: _550  and  _553
REMARK  216  A    between atoms: _553  and  _554
REMARK  217  A    between atoms: _554  and  _555
REMARK  218  A    between atoms: _558  and  _560
REMARK  219  A    between atoms: _560  and  _561
REMARK  220  A    between atoms: _560  and  _563
REMARK  221  A    between atoms: _563  and  _564
REMARK  222  A    between atoms: _569  and  _571
REMARK  223  A    between atoms: _571  and  _572
REMARK  224  A    between atoms: _574  and  _576
REMARK  225  A    between atoms: _576  and  _577
REMARK  226  A    between atoms: _576  and  _579
REMARK  227  A    between atoms: _579  and  _580
REMARK  228  A    between atoms: _580  and  _581
REMARK  229  A    between atoms: _583  and  _585
REMARK  230  A    between atoms: _585  and  _586
REMARK  231  A    between atoms: _585  and  _588
REMARK  232  A    between atoms: _588  and  _589
REMARK  233  A    between atoms: _592  and  _594
REMARK  234  A    between atoms: _594  and  _595
REMARK  235  A    between atoms: _594  and  _597
REMARK  236  A    between atoms: _597  and  _598
REMARK  237  A    between atoms: _608  and  _610
REMARK  238  A    between atoms: _610  and  _611
REMARK  239  A    between atoms: _610  and  _613
REMARK  240  A    between atoms: _613  and  _614
REMARK  241  A    between atoms: _616  and  _618
REMARK  242  A    between atoms: _618  and  _619
REMARK  243  A    between atoms: _618  and  _621
REMARK  244  A    between atoms: _621  and  _622
REMARK  245  A    between atoms: _627  and  _629
REMARK  246  A    between atoms: _629  and  _630
REMARK  247  A    between atoms: _629  and  _632
REMARK  248  A    between atoms: _632  and  _633
REMARK  249  A    between atoms: _639  and  _641
REMARK  250  A    between atoms: _641  and  _642
REMARK  251  A    between atoms: _641  and  _644
REMARK  252  A    between atoms: _644  and  _645
REMARK  253  A    between atoms: _645  and  _646
REMARK  254  A    between atoms: _649  and  _651
REMARK  255  A    between atoms: _651  and  _652
REMARK  256  A    between atoms: _651  and  _654
REMARK  257  A    between atoms: _654  and  _655
REMARK  258  A    between atoms: _665  and  _667
REMARK  259  A    between atoms: _667  and  _668
REMARK  260  A    between atoms: _667  and  _670
REMARK  261  A    between atoms: _670  and  _671
REMARK  262  A    between atoms: _674  and  _676
REMARK  263  A    between atoms: _676  and  _677
REMARK  264  A    between atoms: _676  and  _679
REMARK  265  A    between atoms: _679  and  _680
REMARK  266  A    between atoms: _682  and  _684
REMARK  267  A    between atoms: _684  and  _685
REMARK  268  A    between atoms: _684  and  _687
REMARK  269  A    between atoms: _687  and  _688
REMARK  270  A    between atoms: _690  and  _692
REMARK  271  A    between atoms: _692  and  _693
REMARK  272  A    between atoms: _692  and  _695
REMARK  273  A    between atoms: _695  and  _696
REMARK                            x       y       z     vdW  Elec       q    Type
REMARK                         _______ _______ _______ _____ _____    ______ ____
ROOT
ATOM      1  O   HOH     1       8.025   3.706  42.597  0.00  0.00    +0.000 OA
ENDROOT
TORSDOF 0
REMARK  Name = ../refined-set-2016/3f5j/3f5j_pocket.pdb
REMARK  273 active torsions:
REMARK  status: ('A' for Active; 'I' for Inactive)
REMARK    1  A    between atoms: _1  and  _3
REMARK    2  A    between atoms: _3  and  _4
REMARK    3  A    between atoms: _3  and  _6
REMARK    4  A    between atoms: _9  and  _11
REMARK    5  A    between atoms: _11  and  _12
REMARK    6  A    between atoms: _11  and  _14
REMARK    7  A    between atoms: _14  and  _15
REMARK    8  A    between atoms: _18  and  _20
REMARK    9  A    between atoms: _20  and  _21
REMARK   10  A    between atoms: _20  and  _23
REMARK   11  A    between atoms: _23  and  _24
REMARK   12  A    between atoms: _26  and  _28
REMARK   13  A    between atoms: _28  and  _29
REMARK   14  A    between atoms: _28  and  _31
REMARK   15  A    between atoms: _31  and  _32
REMARK   16  A    between atoms: _32  and  _33
REMARK   17  A    between atoms: _38  and  _40
REMARK   18  A    between atoms: _40  and  _41
REMARK   19  A    between atoms: _40  and  _43
REMARK   20  A    between atoms: _43  and  _44
REMARK   21  A    between atoms: _44  and  _45
REMARK   22  A    between atoms: _45  and  _46
REMARK   23  A    between atoms: _55  and  _57
REMARK   24  A    between atoms: _57  and  _58
REMARK   25  A    between atoms: _57  and  _60
REMARK   26  A    between atoms: _60  and  _61
REMARK   27  A    between atoms: _63  and  _65
REMARK   28  A    between atoms: _65  and  _66
REMARK   29  A    between atoms: _65  and  _68
REMARK   30  A    between atoms: _68  and  _69
REMARK   31  A    between atoms: _74  and  _76
REMARK   32  A    between atoms: _76  and  _77
REMARK   33  A    between atoms: _76  and  _79
REMARK   34  A    between atoms: _79  and  _80
REMARK   35  A    between atoms: _85  and  _87
REMARK   36  A    between atoms: _87  and  _88
REMARK   37  A    between atoms: _87  and  _90
REMARK   38  A    between atoms: _90  and  _91
REMARK   39  A    between atoms: _96  and  _97
REMARK   40  A    between atoms: _99  and  _101
REMARK   41  A    between atoms: _101  and  _102
REMARK   42  A    between atoms: _101  and  _104
REMARK   43  A    between atoms: _104  and  _105
REMARK   44  A    between atoms: _110  and  _112
REMARK   45  A    between atoms: _112  and  _113
REMARK   46  A    between atoms: _112  and  _115
REMARK   47  A    between atoms: _115  and  _116
REMARK   48  A    between atoms: _116  and  _117
REMARK   49  A    between atoms: _122  and  _124
REMARK   50  A    between atoms: _124  and  _125
REMARK   51  A    between atoms: _124  and  _127
REMARK   52  A    between atoms: _127  and  _128
REMARK   53  A    between atoms: _128  and  _129
REMARK   54  A    between atoms: _129  and  _130
REMARK   55  A    between atoms: _139  and  _141
REMARK   56  A    between atoms: _141  and  _142
REMARK   57  A    between atoms: _141  and  _144
REMARK   58  A    between atoms: _144  and  _145
REMARK   59  A    between atoms: _148  and  _150
REMARK   60  A    between atoms: _150  and  _151
REMARK   61  A    between atoms: _150  and  _153
REMARK   62  A    between atoms: _153  and  _154
REMARK   63  A    between atoms: _157  and  _159
REMARK   64  A    between atoms: _159  and  _160
REMARK   65  A    between atoms: _159  and  _162
REMARK   66  A    between atoms: _162  and  _163
REMARK   67  A    between atoms: _166  and  _168
REMARK   68  A    between atoms: _168  and  _169
REMARK   69  A    between atoms: _168  and  _171
REMARK   70  A    between atoms: _171  and  _172
REMARK   71  A    between atoms: _175  and  _177
REMARK   72  A    between atoms: _177  and  _178
REMARK   73  A    between atoms: _177  and  _180
REMARK   74  A    between atoms: _180  and  _181
REMARK   75  A    between atoms: _181  and  _182
REMARK   76  A    between atoms: _187  and  _189
REMARK   77  A    between atoms: _189  and  _190
REMARK   78  A    between atoms: _189  and  _192
REMARK   79  A    between atoms: _192  and  _193
REMARK   80  A    between atoms: _196  and  _198
REMARK   81  A    between atoms: _198  and  _199
REMARK   82  A    between atoms: _198  and  _201
REMARK   83  A    between atoms: _201  and  _202
REMARK   84  A    between atoms: _207  and  _209
REMARK   85  A    between atoms: _209  and  _210
REMARK   86  A    between atoms: _209  and  _212
REMARK   87  A    between atoms: _215  and  _217
REMARK   88  A    between atoms: _217  and  _218
REMARK   89  A    between atoms: _217  and  _220
REMARK   90  A    between atoms: _220  and  _221
REMARK   91  A    between atoms: _224  and  _226
REMARK   92  A    between atoms: _226  and  _227
REMARK   93  A    between atoms: _226  and  _229
REMARK   94  A    between atoms: _229  and  _230
REMARK   95  A    between atoms: _233  and  _235
REMARK   96  A    between atoms: _235  and  _236
REMARK   97  A    between atoms: _235  and  _238
REMARK   98  A    between atoms: _238  and  _239
REMARK   99  A    between atoms: _245  and  _247
REMARK  100  A    between atoms: _247  and  _248
REMARK  101  A    between atoms: _247  and  _250
REMARK  102  A    between atoms: _250  and  _251
REMARK  103  A    between atoms: _256  and  _258
REMARK  104  A    between atoms: _258  and  _259
REMARK  105  A    between atoms: _258  and  _261
REMARK  106  A    between atoms: _261  and  _262
REMARK  107  A    between atoms: _272  and  _274
REMARK  108  A    between atoms: _274  and  _275
REMARK  109  A    between atoms: _274  and  _277
REMARK  110  A    between atoms: _277  and  _278
REMARK  111  A    between atoms: _283  and  _284
REMARK  112  A    between atoms: _286  and  _288
REMARK  113  A    between atoms: _288  and  _289
REMARK  114  A    between atoms: _288  and  _291
REMARK  115  A    between atoms: _291  and  _292
REMARK  116  A    between atoms: _297  and  _299
REMARK  117  A    between atoms: _299  and  _300
REMARK  118  A    between atoms: _299  and  _302
REMARK  119  A    between atoms: _302  and  _303
REMARK  120  A    between atoms: _308  and  _310
REMARK  121  A    between atoms: _310  and  _311
REMARK  122  A    between atoms: _310  and  _313
REMARK  123  A    between atoms: _313  and  _314
REMARK  124  A    between atoms: _314  and  _315
REMARK  125  A    between atoms: _320  and  _322
REMARK  126  A    between atoms: _322  and  _323
REMARK  127  A    between atoms: _322  and  _325
REMARK  128  A    between atoms: _325  and  _326
REMARK  129  A    between atoms: _331  and  _332
REMARK  130  A    between atoms: _334  and  _336
REMARK  131  A    between atoms: _336  and  _337
REMARK  132  A    between atoms: _336  and  _339
REMARK  133  A    between atoms: _339  and  _340
REMARK  134  A    between atoms: _343  and  _345
REMARK  135  A    between atoms: _345  and  _346
REMARK  136  A    between atoms: _349  and  _351
REMARK  137  A    between atoms: _351  and  _352
REMARK  138  A    between atoms: _351  and  _354
REMARK  139  A    between atoms: _354  and  _355
REMARK  140  A    between atoms: _357  and  _359
REMARK  141  A    between atoms: _359  and  _360
REMARK  142  A    between atoms: _359  and  _362
REMARK  143  A    between atoms: _362  and  _363
REMARK  144  A    between atoms: _363  and  _364
REMARK  145  A    between atoms: _366  and  _368
REMARK  146  A    between atoms: _368  and  _369
REMARK  147  A    between atoms: _368  and  _371
REMARK  148  A    between atoms: _371  and  _372
REMARK  149  A    between atoms: _374  and  _376
REMARK  150  A    between atoms: _376  and  _377
REMARK  151  A    between atoms: _376  and  _379
REMARK  152  A    between atoms: _379  and  _380
REMARK  153  A    between atoms: _385  and  _386
REMARK  154  A    between atoms: _388  and  _390
REMARK  155  A    between atoms: _390  and  _391
REMARK  156  A    between atoms: _390  and  _393
REMARK  157  A    between atoms: _393  and  _394
REMARK  158  A    between atoms: _396  and  _398
REMARK  159  A    between atoms: _398  and  _399
REMARK  160  A    between atoms: _402  and  _404
REMARK  161  A    between atoms: _404  and  _405
REMARK  162  A    between atoms: _404  and  _407
REMARK  163  A    between atoms: _407  and  _408
REMARK  164  A    between atoms: _418  and  _420
REMARK  165  A    between atoms: _420  and  _421
REMARK  166  A    between atoms: _420  and  _423
REMARK  167  A    between atoms: _426  and  _428
REMARK  168  A    between atoms: _428  and  _429
REMARK  169  A    between atoms: _428  and  _431
REMARK  170  A    between atoms: _431  and  _432
REMARK  171  A    between atoms: _435  and  _437
REMARK  172  A    between atoms: _437  and  _438
REMARK  173  A    between atoms: _437  and  _440
REMARK  174  A    between atoms: _440  and  _441
REMARK  175  A    between atoms: _446  and  _447
REMARK  176  A    between atoms: _449  and  _451
REMARK  177  A    between atoms: _451  and  _452
REMARK  178  A    between atoms: _451  and  _454
REMARK  179  A    between atoms: _457  and  _459
REMARK  180  A    between atoms: _459  and  _460
REMARK  181  A    between atoms: _459  and  _462
REMARK  182  A    between atoms: _462  and  _463
REMARK  183  A    between atoms: _469  and  _471
REMARK  184  A    between atoms: _471  and  _472
REMARK  185  A    between atoms: _471  and  _474
REMARK  186  A    between atoms: _474  and  _475
REMARK  187  A    between atoms: _475  and  _476
REMARK  188  A    between atoms: _481  and  _483
REMARK  189  A    between atoms: _483  and  _484
REMARK  190  A    between atoms: _483  and  _486
REMARK  191  A    between atoms: _486  and  _487
REMARK  192  A    between atoms: _489  and  _491
REMARK  193  A    between atoms: _491  and  _492
REMARK  194  A    between atoms: _491  and  _494
REMARK  195  A    between atoms: _494  and  _495
REMARK  196  A    between atoms: _500  and  _502
REMARK  197  A    between atoms: _502  and  _503
REMARK  198  A    between atoms: _502  and  _505
REMARK  199  A    between atoms: _505  and  _506
REMARK  200  A    between atoms: _516  and  _518
REMARK  201  A    between atoms: _518  and  _519
REMARK  202  A    between atoms: _518  and  _521
REMARK  203  A    between atoms: _521  and  _522
REMARK  204  A    between atoms: _525  and  _527
REMARK  205  A    between atoms: _527  and  _528
REMARK  206  A    between atoms: _527  and  _530
REMARK  207  A    between atoms: _530  and  _531
REMARK  208  A    between atoms: _536  and  _537
REMARK  209  A    between atoms: _539  and  _541
REMARK  210  A    between atoms: _541  and  _542
REMARK  211  A    between atoms: _541  and  _544
REMARK  212  A    between atoms: _544  and  _545
REMARK  213  A    between atoms: _548  and  _550
REMARK  214  A    between atoms: _550  and  _551
REMARK  215  A    between atoms: _550  and  _553
REMARK  216  A    between atoms: _553  and  _554
REMARK  217  A    between atoms: _554  and  _555
REMARK  218  A    between atoms: _558  and  _560
REMARK  219  A    between atoms: _560  and  _561
REMARK  220  A    between atoms: _560  and  _563
REMARK  221  A    between atoms: _563  and  _564
REMARK  222  A    between atoms: _569  and  _571
REMARK  223  A    between atoms: _571  and  _572
REMARK  224  A    between atoms: _574  and  _576
REMARK  225  A    between atoms: _576  and  _577
REMARK  226  A    between atoms: _576  and  _579
REMARK  227  A    between atoms: _579  and  _580
REMARK  228  A    between atoms: _580  and  _581
REMARK  229  A    between atoms: _583  and  _585
REMARK  230  A    between atoms: _585  and  _586
REMARK  231  A    between atoms: _585  and  _588
REMARK  232  A    between atoms: _588  and  _589
REMARK  233  A    between atoms: _592  and  _594
REMARK  234  A    between atoms: _594  and  _595
REMARK  235  A    between atoms: _594  and  _597
REMARK  236  A    between atoms: _597  and  _598
REMARK  237  A    between atoms: _608  and  _610
REMARK  238  A    between atoms: _610  and  _611
REMARK  239  A    between atoms: _610  and  _613
REMARK  240  A    between atoms: _613  and  _614
REMARK  241  A    between atoms: _616  and  _618
REMARK  242  A    between atoms: _618  and  _619
REMARK  243  A    between atoms: _618  and  _621
REMARK  244  A    between atoms: _621  and  _622
REMARK  245  A    between atoms: _627  and  _629
REMARK  246  A    between atoms: _629  and  _630
REMARK  247  A    between atoms: _629  and  _632
REMARK  248  A    between atoms: _632  and  _633
REMARK  249  A    between atoms: _639  and  _641
REMARK  250  A    between atoms: _641  and  _642
REMARK  251  A    between atoms: _641  and  _644
REMARK  252  A    between atoms: _644  and  _645
REMARK  253  A    between atoms: _645  and  _646
REMARK  254  A    between atoms: _649  and  _651
REMARK  255  A    between atoms: _651  and  _652
REMARK  256  A    between atoms: _651  and  _654
REMARK  257  A    between atoms: _654  and  _655
REMARK  258  A    between atoms: _665  and  _667
REMARK  259  A    between atoms: _667  and  _668
REMARK  260  A    between atoms: _667  and  _670
REMARK  261  A    between atoms: _670  and  _671
REMARK  262  A    between atoms: _674  and  _676
REMARK  263  A    between atoms: _676  and  _677
REMARK  264  A    between atoms: _676  and  _679
REMARK  265  A    between atoms: _679  and  _680
REMARK  266  A    between atoms: _682  and  _684
REMARK  267  A    between atoms: _684  and  _685
REMARK  268  A    between atoms: _684  and  _687
REMARK  269  A    between atoms: _687  and  _688
REMARK  270  A    between atoms: _690  and  _692
REMARK  271  A    between atoms: _692  and  _693
REMARK  272  A    between atoms: _692  and  _695
REMARK  273  A    between atoms: _695  and  _696
REMARK                            x       y       z     vdW  Elec       q    Type
REMARK                         _______ _______ _______ _____ _____    ______ ____
ROOT
ATOM      1  O   HOH     1      -2.658  -1.700  37.231  0.00  0.00    +0.000 OA
ENDROOT
TORSDOF 0
REMARK  Name = ../refined-set-2016/3f5j/3f5j_pocket.pdb
REMARK  273 active torsions:
REMARK  status: ('A' for Active; 'I' for Inactive)
REMARK    1  A    between atoms: _1  and  _3
REMARK    2  A    between atoms: _3  and  _4
REMARK    3  A    between atoms: _3  and  _6
REMARK    4  A    between atoms: _9  and  _11
REMARK    5  A    between atoms: _11  and  _12
REMARK    6  A    between atoms: _11  and  _14
REMARK    7  A    between atoms: _14  and  _15
REMARK    8  A    between atoms: _18  and  _20
REMARK    9  A    between atoms: _20  and  _21
REMARK   10  A    between atoms: _20  and  _23
REMARK   11  A    between atoms: _23  and  _24
REMARK   12  A    between atoms: _26  and  _28
REMARK   13  A    between atoms: _28  and  _29
REMARK   14  A    between atoms: _28  and  _31
REMARK   15  A    between atoms: _31  and  _32
REMARK   16  A    between atoms: _32  and  _33
REMARK   17  A    between atoms: _38  and  _40
REMARK   18  A    between atoms: _40  and  _41
REMARK   19  A    between atoms: _40  and  _43
REMARK   20  A    between atoms: _43  and  _44
REMARK   21  A    between atoms: _44  and  _45
REMARK   22  A    between atoms: _45  and  _46
REMARK   23  A    between atoms: _55  and  _57
REMARK   24  A    between atoms: _57  and  _58
REMARK   25  A    between atoms: _57  and  _60
REMARK   26  A    between atoms: _60  and  _61
REMARK   27  A    between atoms: _63  and  _65
REMARK   28  A    between atoms: _65  and  _66
REMARK   29  A    between atoms: _65  and  _68
REMARK   30  A    between atoms: _68  and  _69
REMARK   31  A    between atoms: _74  and  _76
REMARK   32  A    between atoms: _76  and  _77
REMARK   33  A    between atoms: _76  and  _79
REMARK   34  A    between atoms: _79  and  _80
REMARK   35  A    between atoms: _85  and  _87
REMARK   36  A    between atoms: _87  and  _88
REMARK   37  A    between atoms: _87  and  _90
REMARK   38  A    between atoms: _90  and  _91
REMARK   39  A    between atoms: _96  and  _97
REMARK   40  A    between atoms: _99  and  _101
REMARK   41  A    between atoms: _101  and  _102
REMARK   42  A    between atoms: _101  and  _104
REMARK   43  A    between atoms: _104  and  _105
REMARK   44  A    between atoms: _110  and  _112
REMARK   45  A    between atoms: _112  and  _113
REMARK   46  A    between atoms: _112  and  _115
REMARK   47  A    between atoms: _115  and  _116
REMARK   48  A    between atoms: _116  and  _117
REMARK   49  A    between atoms: _122  and  _124
REMARK   50  A    between atoms: _124  and  _125
REMARK   51  A    between atoms: _124  and  _127
REMARK   52  A    between atoms: _127  and  _128
REMARK   53  A    between atoms: _128  and  _129
REMARK   54  A    between atoms: _129  and  _130
REMARK   55  A    between atoms: _139  and  _141
REMARK   56  A    between atoms: _141  and  _142
REMARK   57  A    between atoms: _141  and  _144
REMARK   58  A    between atoms: _144  and  _145
REMARK   59  A    between atoms: _148  and  _150
REMARK   60  A    between atoms: _150  and  _151
REMARK   61  A    between atoms: _150  and  _153
REMARK   62  A    between atoms: _153  and  _154
REMARK   63  A    between atoms: _157  and  _159
REMARK   64  A    between atoms: _159  and  _160
REMARK   65  A    between atoms: _159  and  _162
REMARK   66  A    between atoms: _162  and  _163
REMARK   67  A    between atoms: _166  and  _168
REMARK   68  A    between atoms: _168  and  _169
REMARK   69  A    between atoms: _168  and  _171
REMARK   70  A    between atoms: _171  and  _172
REMARK   71  A    between atoms: _175  and  _177
REMARK   72  A    between atoms: _177  and  _178
REMARK   73  A    between atoms: _177  and  _180
REMARK   74  A    between atoms: _180  and  _181
REMARK   75  A    between atoms: _181  and  _182
REMARK   76  A    between atoms: _187  and  _189
REMARK   77  A    between atoms: _189  and  _190
REMARK   78  A    between atoms: _189  and  _192
REMARK   79  A    between atoms: _192  and  _193
REMARK   80  A    between atoms: _196  and  _198
REMARK   81  A    between atoms: _198  and  _199
REMARK   82  A    between atoms: _198  and  _201
REMARK   83  A    between atoms: _201  and  _202
REMARK   84  A    between atoms: _207  and  _209
REMARK   85  A    between atoms: _209  and  _210
REMARK   86  A    between atoms: _209  and  _212
REMARK   87  A    between atoms: _215  and  _217
REMARK   88  A    between atoms: _217  and  _218
REMARK   89  A    between atoms: _217  and  _220
REMARK   90  A    between atoms: _220  and  _221
REMARK   91  A    between atoms: _224  and  _226
REMARK   92  A    between atoms: _226  and  _227
REMARK   93  A    between atoms: _226  and  _229
REMARK   94  A    between atoms: _229  and  _230
REMARK   95  A    between atoms: _233  and  _235
REMARK   96  A    between atoms: _235  and  _236
REMARK   97  A    between atoms: _235  and  _238
REMARK   98  A    between atoms: _238  and  _239
REMARK   99  A    between atoms: _245  and  _247
REMARK  100  A    between atoms: _247  and  _248
REMARK  101  A    between atoms: _247  and  _250
REMARK  102  A    between atoms: _250  and  _251
REMARK  103  A    between atoms: _256  and  _258
REMARK  104  A    between atoms: _258  and  _259
REMARK  105  A    between atoms: _258  and  _261
REMARK  106  A    between atoms: _261  and  _262
REMARK  107  A    between atoms: _272  and  _274
REMARK  108  A    between atoms: _274  and  _275
REMARK  109  A    between atoms: _274  and  _277
REMARK  110  A    between atoms: _277  and  _278
REMARK  111  A    between atoms: _283  and  _284
REMARK  112  A    between atoms: _286  and  _288
REMARK  113  A    between atoms: _288  and  _289
REMARK  114  A    between atoms: _288  and  _291
REMARK  115  A    between atoms: _291  and  _292
REMARK  116  A    between atoms: _297  and  _299
REMARK  117  A    between atoms: _299  and  _300
REMARK  118  A    between atoms: _299  and  _302
REMARK  119  A    between atoms: _302  and  _303
REMARK  120  A    between atoms: _308  and  _310
REMARK  121  A    between atoms: _310  and  _311
REMARK  122  A    between atoms: _310  and  _313
REMARK  123  A    between atoms: _313  and  _314
REMARK  124  A    between atoms: _314  and  _315
REMARK  125  A    between atoms: _320  and  _322
REMARK  126  A    between atoms: _322  and  _323
REMARK  127  A    between atoms: _322  and  _325
REMARK  128  A    between atoms: _325  and  _326
REMARK  129  A    between atoms: _331  and  _332
REMARK  130  A    between atoms: _334  and  _336
REMARK  131  A    between atoms: _336  and  _337
REMARK  132  A    between atoms: _336  and  _339
REMARK  133  A    between atoms: _339  and  _340
REMARK  134  A    between atoms: _343  and  _345
REMARK  135  A    between atoms: _345  and  _346
REMARK  136  A    between atoms: _349  and  _351
REMARK  137  A    between atoms: _351  and  _352
REMARK  138  A    between atoms: _351  and  _354
REMARK  139  A    between atoms: _354  and  _355
REMARK  140  A    between atoms: _357  and  _359
REMARK  141  A    between atoms: _359  and  _360
REMARK  142  A    between atoms: _359  and  _362
REMARK  143  A    between atoms: _362  and  _363
REMARK  144  A    between atoms: _363  and  _364
REMARK  145  A    between atoms: _366  and  _368
REMARK  146  A    between atoms: _368  and  _369
REMARK  147  A    between atoms: _368  and  _371
REMARK  148  A    between atoms: _371  and  _372
REMARK  149  A    between atoms: _374  and  _376
REMARK  150  A    between atoms: _376  and  _377
REMARK  151  A    between atoms: _376  and  _379
REMARK  152  A    between atoms: _379  and  _380
REMARK  153  A    between atoms: _385  and  _386
REMARK  154  A    between atoms: _388  and  _390
REMARK  155  A    between atoms: _390  and  _391
REMARK  156  A    between atoms: _390  and  _393
REMARK  157  A    between atoms: _393  and  _394
REMARK  158  A    between atoms: _396  and  _398
REMARK  159  A    between atoms: _398  and  _399
REMARK  160  A    between atoms: _402  and  _404
REMARK  161  A    between atoms: _404  and  _405
REMARK  162  A    between atoms: _404  and  _407
REMARK  163  A    between atoms: _407  and  _408
REMARK  164  A    between atoms: _418  and  _420
REMARK  165  A    between atoms: _420  and  _421
REMARK  166  A    between atoms: _420  and  _423
REMARK  167  A    between atoms: _426  and  _428
REMARK  168  A    between atoms: _428  and  _429
REMARK  169  A    between atoms: _428  and  _431
REMARK  170  A    between atoms: _431  and  _432
REMARK  171  A    between atoms: _435  and  _437
REMARK  172  A    between atoms: _437  and  _438
REMARK  173  A    between atoms: _437  and  _440
REMARK  174  A    between atoms: _440  and  _441
REMARK  175  A    between atoms: _446  and  _447
REMARK  176  A    between atoms: _449  and  _451
REMARK  177  A    between atoms: _451  and  _452
REMARK  178  A    between atoms: _451  and  _454
REMARK  179  A    between atoms: _457  and  _459
REMARK  180  A    between atoms: _459  and  _460
REMARK  181  A    between atoms: _459  and  _462
REMARK  182  A    between atoms: _462  and  _463
REMARK  183  A    between atoms: _469  and  _471
REMARK  184  A    between atoms: _471  and  _472
REMARK  185  A    between atoms: _471  and  _474
REMARK  186  A    between atoms: _474  and  _475
REMARK  187  A    between atoms: _475  and  _476
REMARK  188  A    between atoms: _481  and  _483
REMARK  189  A    between atoms: _483  and  _484
REMARK  190  A    between atoms: _483  and  _486
REMARK  191  A    between atoms: _486  and  _487
REMARK  192  A    between atoms: _489  and  _491
REMARK  193  A    between atoms: _491  and  _492
REMARK  194  A    between atoms: _491  and  _494
REMARK  195  A    between atoms: _494  and  _495
REMARK  196  A    between atoms: _500  and  _502
REMARK  197  A    between atoms: _502  and  _503
REMARK  198  A    between atoms: _502  and  _505
REMARK  199  A    between atoms: _505  and  _506
REMARK  200  A    between atoms: _516  and  _518
REMARK  201  A    between atoms: _518  and  _519
REMARK  202  A    between atoms: _518  and  _521
REMARK  203  A    between atoms: _521  and  _522
REMARK  204  A    between atoms: _525  and  _527
REMARK  205  A    between atoms: _527  and  _528
REMARK  206  A    between atoms: _527  and  _530
REMARK  207  A    between atoms: _530  and  _531
REMARK  208  A    between atoms: _536  and  _537
REMARK  209  A    between atoms: _539  and  _541
REMARK  210  A    between atoms: _541  and  _542
REMARK  211  A    between atoms: _541  and  _544
REMARK  212  A    between atoms: _544  and  _545
REMARK  213  A    between atoms: _548  and  _550
REMARK  214  A    between atoms: _550  and  _551
REMARK  215  A    between atoms: _550  and  _553
REMARK  216  A    between atoms: _553  and  _554
REMARK  217  A    between atoms: _554  and  _555
REMARK  218  A    between atoms: _558  and  _560
REMARK  219  A    between atoms: _560  and  _561
REMARK  220  A    between atoms: _560  and  _563
REMARK  221  A    between atoms: _563  and  _564
REMARK  222  A    between atoms: _569  and  _571
REMARK  223  A    between atoms: _571  and  _572
REMARK  224  A    between atoms: _574  and  _576
REMARK  225  A    between atoms: _576  and  _577
REMARK  226  A    between atoms: _576  and  _579
REMARK  227  A    between atoms: _579  and  _580
REMARK  228  A    between atoms: _580  and  _581
REMARK  229  A    between atoms: _583  and  _585
REMARK  230  A    between atoms: _585  and  _586
REMARK  231  A    between atoms: _585  and  _588
REMARK  232  A    between atoms: _588  and  _589
REMARK  233  A    between atoms: _592  and  _594
REMARK  234  A    between atoms: _594  and  _595
REMARK  235  A    between atoms: _594  and  _597
REMARK  236  A    between atoms: _597  and  _598
REMARK  237  A    between atoms: _608  and  _610
REMARK  238  A    between atoms: _610  and  _611
REMARK  239  A    between atoms: _610  and  _613
REMARK  240  A    between atoms: _613  and  _614
REMARK  241  A    between atoms: _616  and  _618
REMARK  242  A    between atoms: _618  and  _619
REMARK  243  A    between atoms: _618  and  _621
REMARK  244  A    between atoms: _621  and  _622
REMARK  245  A    between atoms: _627  and  _629
REMARK  246  A    between atoms: _629  and  _630
REMARK  247  A    between atoms: _629  and  _632
REMARK  248  A    between atoms: _632  and  _633
REMARK  249  A    between atoms: _639  and  _641
REMARK  250  A    between atoms: _641  and  _642
REMARK  251  A    between atoms: _641  and  _644
REMARK  252  A    between atoms: _644  and  _645
REMARK  253  A    between atoms: _645  and  _646
REMARK  254  A    between atoms: _649  and  _651
REMARK  255  A    between atoms: _651  and  _652
REMARK  256  A    between atoms: _651  and  _654
REMARK  257  A    between atoms: _654  and  _655
REMARK  258  A    between atoms: _665  and  _667
REMARK  259  A    between atoms: _667  and  _668
REMARK  260  A    between atoms: _667  and  _670
REMARK  261  A    between atoms: _670  and  _671
REMARK  262  A    between atoms: _674  and  _676
REMARK  263  A    between atoms: _676  and  _677
REMARK  264  A    between atoms: _676  and  _679
REMARK  265  A    between atoms: _679  and  _680
REMARK  266  A    between atoms: _682  and  _684
REMARK  267  A    between atoms: _684  and  _685
REMARK  268  A    between atoms: _684  and  _687
REMARK  269  A    between atoms: _687  and  _688
REMARK  270  A    between atoms: _690  and  _692
REMARK  271  A    between atoms: _692  and  _693
REMARK  272  A    between atoms: _692  and  _695
REMARK  273  A    between atoms: _695  and  _696
REMARK                            x       y       z     vdW  Elec       q    Type
REMARK                         _______ _______ _______ _____ _____    ______ ____
ROOT
ATOM      1  O   HOH     1       0.812   4.974  47.562  0.00  0.00    +0.000 OA
ENDROOT
TORSDOF 0
REMARK  Name = ../refined-set-2016/3f5j/3f5j_pocket.pdb
REMARK  273 active torsions:
REMARK  status: ('A' for Active; 'I' for Inactive)
REMARK    1  A    between atoms: _1  and  _3
REMARK    2  A    between atoms: _3  and  _4
REMARK    3  A    between atoms: _3  and  _6
REMARK    4  A    between atoms: _9  and  _11
REMARK    5  A    between atoms: _11  and  _12
REMARK    6  A    between atoms: _11  and  _14
REMARK    7  A    between atoms: _14  and  _15
REMARK    8  A    between atoms: _18  and  _20
REMARK    9  A    between atoms: _20  and  _21
REMARK   10  A    between atoms: _20  and  _23
REMARK   11  A    between atoms: _23  and  _24
REMARK   12  A    between atoms: _26  and  _28
REMARK   13  A    between atoms: _28  and  _29
REMARK   14  A    between atoms: _28  and  _31
REMARK   15  A    between atoms: _31  and  _32
REMARK   16  A    between atoms: _32  and  _33
REMARK   17  A    between atoms: _38  and  _40
REMARK   18  A    between atoms: _40  and  _41
REMARK   19  A    between atoms: _40  and  _43
REMARK   20  A    between atoms: _43  and  _44
REMARK   21  A    between atoms: _44  and  _45
REMARK   22  A    between atoms: _45  and  _46
REMARK   23  A    between atoms: _55  and  _57
REMARK   24  A    between atoms: _57  and  _58
REMARK   25  A    between atoms: _57  and  _60
REMARK   26  A    between atoms: _60  and  _61
REMARK   27  A    between atoms: _63  and  _65
REMARK   28  A    between atoms: _65  and  _66
REMARK   29  A    between atoms: _65  and  _68
REMARK   30  A    between atoms: _68  and  _69
REMARK   31  A    between atoms: _74  and  _76
REMARK   32  A    between atoms: _76  and  _77
REMARK   33  A    between atoms: _76  and  _79
REMARK   34  A    between atoms: _79  and  _80
REMARK   35  A    between atoms: _85  and  _87
REMARK   36  A    between atoms: _87  and  _88
REMARK   37  A    between atoms: _87  and  _90
REMARK   38  A    between atoms: _90  and  _91
REMARK   39  A    between atoms: _96  and  _97
REMARK   40  A    between atoms: _99  and  _101
REMARK   41  A    between atoms: _101  and  _102
REMARK   42  A    between atoms: _101  and  _104
REMARK   43  A    between atoms: _104  and  _105
REMARK   44  A    between atoms: _110  and  _112
REMARK   45  A    between atoms: _112  and  _113
REMARK   46  A    between atoms: _112  and  _115
REMARK   47  A    between atoms: _115  and  _116
REMARK   48  A    between atoms: _116  and  _117
REMARK   49  A    between atoms: _122  and  _124
REMARK   50  A    between atoms: _124  and  _125
REMARK   51  A    between atoms: _124  and  _127
REMARK   52  A    between atoms: _127  and  _128
REMARK   53  A    between atoms: _128  and  _129
REMARK   54  A    between atoms: _129  and  _130
REMARK   55  A    between atoms: _139  and  _141
REMARK   56  A    between atoms: _141  and  _142
REMARK   57  A    between atoms: _141  and  _144
REMARK   58  A    between atoms: _144  and  _145
REMARK   59  A    between atoms: _148  and  _150
REMARK   60  A    between atoms: _150  and  _151
REMARK   61  A    between atoms: _150  and  _153
REMARK   62  A    between atoms: _153  and  _154
REMARK   63  A    between atoms: _157  and  _159
REMARK   64  A    between atoms: _159  and  _160
REMARK   65  A    between atoms: _159  and  _162
REMARK   66  A    between atoms: _162  and  _163
REMARK   67  A    between atoms: _166  and  _168
REMARK   68  A    between atoms: _168  and  _169
REMARK   69  A    between atoms: _168  and  _171
REMARK   70  A    between atoms: _171  and  _172
REMARK   71  A    between atoms: _175  and  _177
REMARK   72  A    between atoms: _177  and  _178
REMARK   73  A    between atoms: _177  and  _180
REMARK   74  A    between atoms: _180  and  _181
REMARK   75  A    between atoms: _181  and  _182
REMARK   76  A    between atoms: _187  and  _189
REMARK   77  A    between atoms: _189  and  _190
REMARK   78  A    between atoms: _189  and  _192
REMARK   79  A    between atoms: _192  and  _193
REMARK   80  A    between atoms: _196  and  _198
REMARK   81  A    between atoms: _198  and  _199
REMARK   82  A    between atoms: _198  and  _201
REMARK   83  A    between atoms: _201  and  _202
REMARK   84  A    between atoms: _207  and  _209
REMARK   85  A    between atoms: _209  and  _210
REMARK   86  A    between atoms: _209  and  _212
REMARK   87  A    between atoms: _215  and  _217
REMARK   88  A    between atoms: _217  and  _218
REMARK   89  A    between atoms: _217  and  _220
REMARK   90  A    between atoms: _220  and  _221
REMARK   91  A    between atoms: _224  and  _226
REMARK   92  A    between atoms: _226  and  _227
REMARK   93  A    between atoms: _226  and  _229
REMARK   94  A    between atoms: _229  and  _230
REMARK   95  A    between atoms: _233  and  _235
REMARK   96  A    between atoms: _235  and  _236
REMARK   97  A    between atoms: _235  and  _238
REMARK   98  A    between atoms: _238  and  _239
REMARK   99  A    between atoms: _245  and  _247
REMARK  100  A    between atoms: _247  and  _248
REMARK  101  A    between atoms: _247  and  _250
REMARK  102  A    between atoms: _250  and  _251
REMARK  103  A    between atoms: _256  and  _258
REMARK  104  A    between atoms: _258  and  _259
REMARK  105  A    between atoms: _258  and  _261
REMARK  106  A    between atoms: _261  and  _262
REMARK  107  A    between atoms: _272  and  _274
REMARK  108  A    between atoms: _274  and  _275
REMARK  109  A    between atoms: _274  and  _277
REMARK  110  A    between atoms: _277  and  _278
REMARK  111  A    between atoms: _283  and  _284
REMARK  112  A    between atoms: _286  and  _288
REMARK  113  A    between atoms: _288  and  _289
REMARK  114  A    between atoms: _288  and  _291
REMARK  115  A    between atoms: _291  and  _292
REMARK  116  A    between atoms: _297  and  _299
REMARK  117  A    between atoms: _299  and  _300
REMARK  118  A    between atoms: _299  and  _302
REMARK  119  A    between atoms: _302  and  _303
REMARK  120  A    between atoms: _308  and  _310
REMARK  121  A    between atoms: _310  and  _311
REMARK  122  A    between atoms: _310  and  _313
REMARK  123  A    between atoms: _313  and  _314
REMARK  124  A    between atoms: _314  and  _315
REMARK  125  A    between atoms: _320  and  _322
REMARK  126  A    between atoms: _322  and  _323
REMARK  127  A    between atoms: _322  and  _325
REMARK  128  A    between atoms: _325  and  _326
REMARK  129  A    between atoms: _331  and  _332
REMARK  130  A    between atoms: _334  and  _336
REMARK  131  A    between atoms: _336  and  _337
REMARK  132  A    between atoms: _336  and  _339
REMARK  133  A    between atoms: _339  and  _340
REMARK  134  A    between atoms: _343  and  _345
REMARK  135  A    between atoms: _345  and  _346
REMARK  136  A    between atoms: _349  and  _351
REMARK  137  A    between atoms: _351  and  _352
REMARK  138  A    between atoms: _351  and  _354
REMARK  139  A    between atoms: _354  and  _355
REMARK  140  A    between atoms: _357  and  _359
REMARK  141  A    between atoms: _359  and  _360
REMARK  142  A    between atoms: _359  and  _362
REMARK  143  A    between atoms: _362  and  _363
REMARK  144  A    between atoms: _363  and  _364
REMARK  145  A    between atoms: _366  and  _368
REMARK  146  A    between atoms: _368  and  _369
REMARK  147  A    between atoms: _368  and  _371
REMARK  148  A    between atoms: _371  and  _372
REMARK  149  A    between atoms: _374  and  _376
REMARK  150  A    between atoms: _376  and  _377
REMARK  151  A    between atoms: _376  and  _379
REMARK  152  A    between atoms: _379  and  _380
REMARK  153  A    between atoms: _385  and  _386
REMARK  154  A    between atoms: _388  and  _390
REMARK  155  A    between atoms: _390  and  _391
REMARK  156  A    between atoms: _390  and  _393
REMARK  157  A    between atoms: _393  and  _394
REMARK  158  A    between atoms: _396  and  _398
REMARK  159  A    between atoms: _398  and  _399
REMARK  160  A    between atoms: _402  and  _404
REMARK  161  A    between atoms: _404  and  _405
REMARK  162  A    between atoms: _404  and  _407
REMARK  163  A    between atoms: _407  and  _408
REMARK  164  A    between atoms: _418  and  _420
REMARK  165  A    between atoms: _420  and  _421
REMARK  166  A    between atoms: _420  and  _423
REMARK  167  A    between atoms: _426  and  _428
REMARK  168  A    between atoms: _428  and  _429
REMARK  169  A    between atoms: _428  and  _431
REMARK  170  A    between atoms: _431  and  _432
REMARK  171  A    between atoms: _435  and  _437
REMARK  172  A    between atoms: _437  and  _438
REMARK  173  A    between atoms: _437  and  _440
REMARK  174  A    between atoms: _440  and  _441
REMARK  175  A    between atoms: _446  and  _447
REMARK  176  A    between atoms: _449  and  _451
REMARK  177  A    between atoms: _451  and  _452
REMARK  178  A    between atoms: _451  and  _454
REMARK  179  A    between atoms: _457  and  _459
REMARK  180  A    between atoms: _459  and  _460
REMARK  181  A    between atoms: _459  and  _462
REMARK  182  A    between atoms: _462  and  _463
REMARK  183  A    between atoms: _469  and  _471
REMARK  184  A    between atoms: _471  and  _472
REMARK  185  A    between atoms: _471  and  _474
REMARK  186  A    between atoms: _474  and  _475
REMARK  187  A    between atoms: _475  and  _476
REMARK  188  A    between atoms: _481  and  _483
REMARK  189  A    between atoms: _483  and  _484
REMARK  190  A    between atoms: _483  and  _486
REMARK  191  A    between atoms: _486  and  _487
REMARK  192  A    between atoms: _489  and  _491
REMARK  193  A    between atoms: _491  and  _492
REMARK  194  A    between atoms: _491  and  _494
REMARK  195  A    between atoms: _494  and  _495
REMARK  196  A    between atoms: _500  and  _502
REMARK  197  A    between atoms: _502  and  _503
REMARK  198  A    between atoms: _502  and  _505
REMARK  199  A    between atoms: _505  and  _506
REMARK  200  A    between atoms: _516  and  _518
REMARK  201  A    between atoms: _518  and  _519
REMARK  202  A    between atoms: _518  and  _521
REMARK  203  A    between atoms: _521  and  _522
REMARK  204  A    between atoms: _525  and  _527
REMARK  205  A    between atoms: _527  and  _528
REMARK  206  A    between atoms: _527  and  _530
REMARK  207  A    between atoms: _530  and  _531
REMARK  208  A    between atoms: _536  and  _537
REMARK  209  A    between atoms: _539  and  _541
REMARK  210  A    between atoms: _541  and  _542
REMARK  211  A    between atoms: _541  and  _544
REMARK  212  A    between atoms: _544  and  _545
REMARK  213  A    between atoms: _548  and  _550
REMARK  214  A    between atoms: _550  and  _551
REMARK  215  A    between atoms: _550  and  _553
REMARK  216  A    between atoms: _553  and  _554
REMARK  217  A    between atoms: _554  and  _555
REMARK  218  A    between atoms: _558  and  _560
REMARK  219  A    between atoms: _560  and  _561
REMARK  220  A    between atoms: _560  and  _563
REMARK  221  A    between atoms: _563  and  _564
REMARK  222  A    between atoms: _569  and  _571
REMARK  223  A    between atoms: _571  and  _572
REMARK  224  A    between atoms: _574  and  _576
REMARK  225  A    between atoms: _576  and  _577
REMARK  226  A    between atoms: _576  and  _579
REMARK  227  A    between atoms: _579  and  _580
REMARK  228  A    between atoms: _580  and  _581
REMARK  229  A    between atoms: _583  and  _585
REMARK  230  A    between atoms: _585  and  _586
REMARK  231  A    between atoms: _585  and  _588
REMARK  232  A    between atoms: _588  and  _589
REMARK  233  A    between atoms: _592  and  _594
REMARK  234  A    between atoms: _594  and  _595
REMARK  235  A    between atoms: _594  and  _597
REMARK  236  A    between atoms: _597  and  _598
REMARK  237  A    between atoms: _608  and  _610
REMARK  238  A    between atoms: _610  and  _611
REMARK  239  A    between atoms: _610  and  _613
REMARK  240  A    between atoms: _613  and  _614
REMARK  241  A    between atoms: _616  and  _618
REMARK  242  A    between atoms: _618  and  _619
REMARK  243  A    between atoms: _618  and  _621
REMARK  244  A    between atoms: _621  and  _622
REMARK  245  A    between atoms: _627  and  _629
REMARK  246  A    between atoms: _629  and  _630
REMARK  247  A    between atoms: _629  and  _632
REMARK  248  A    between atoms: _632  and  _633
REMARK  249  A    between atoms: _639  and  _641
REMARK  250  A    between atoms: _641  and  _642
REMARK  251  A    between atoms: _641  and  _644
REMARK  252  A    between atoms: _644  and  _645
REMARK  253  A    between atoms: _645  and  _646
REMARK  254  A    between atoms: _649  and  _651
REMARK  255  A    between atoms: _651  and  _652
REMARK  256  A    between atoms: _651  and  _654
REMARK  257  A    between atoms: _654  and  _655
REMARK  258  A    between atoms: _665  and  _667
REMARK  259  A    between atoms: _667  and  _668
REMARK  260  A    between atoms: _667  and  _670
REMARK  261  A    between atoms: _670  and  _671
REMARK  262  A    between atoms: _674  and  _676
REMARK  263  A    between atoms: _676  and  _677
REMARK  264  A    between atoms: _676  and  _679
REMARK  265  A    between atoms: _679  and  _680
REMARK  266  A    between atoms: _682  and  _684
REMARK  267  A    between atoms: _684  and  _685
REMARK  268  A    between atoms: _684  and  _687
REMARK  269  A    between atoms: _687  and  _688
REMARK  270  A    between atoms: _690  and  _692
REMARK  271  A    between atoms: _692  and  _693
REMARK  272  A    between atoms: _692  and  _695
REMARK  273  A    between atoms: _695  and  _696
REMARK                            x       y       z     vdW  Elec       q    Type
REMARK                         _______ _______ _______ _____ _____    ______ ____
ROOT
ATOM      1  O   HOH     1       1.161  -3.824  36.981  0.00  0.00    +0.000 OA
ENDROOT
TORSDOF 0
REMARK  Name = ../refined-set-2016/3f5j/3f5j_pocket.pdb
REMARK  273 active torsions:
REMARK  status: ('A' for Active; 'I' for Inactive)
REMARK    1  A    between atoms: _1  and  _3
REMARK    2  A    between atoms: _3  and  _4
REMARK    3  A    between atoms: _3  and  _6
REMARK    4  A    between atoms: _9  and  _11
REMARK    5  A    between atoms: _11  and  _12
REMARK    6  A    between atoms: _11  and  _14
REMARK    7  A    between atoms: _14  and  _15
REMARK    8  A    between atoms: _18  and  _20
REMARK    9  A    between atoms: _20  and  _21
REMARK   10  A    between atoms: _20  and  _23
REMARK   11  A    between atoms: _23  and  _24
REMARK   12  A    between atoms: _26  and  _28
REMARK   13  A    between atoms: _28  and  _29
REMARK   14  A    between atoms: _28  and  _31
REMARK   15  A    between atoms: _31  and  _32
REMARK   16  A    between atoms: _32  and  _33
REMARK   17  A    between atoms: _38  and  _40
REMARK   18  A    between atoms: _40  and  _41
REMARK   19  A    between atoms: _40  and  _43
REMARK   20  A    between atoms: _43  and  _44
REMARK   21  A    between atoms: _44  and  _45
REMARK   22  A    between atoms: _45  and  _46
REMARK   23  A    between atoms: _55  and  _57
REMARK   24  A    between atoms: _57  and  _58
REMARK   25  A    between atoms: _57  and  _60
REMARK   26  A    between atoms: _60  and  _61
REMARK   27  A    between atoms: _63  and  _65
REMARK   28  A    between atoms: _65  and  _66
REMARK   29  A    between atoms: _65  and  _68
REMARK   30  A    between atoms: _68  and  _69
REMARK   31  A    between atoms: _74  and  _76
REMARK   32  A    between atoms: _76  and  _77
REMARK   33  A    between atoms: _76  and  _79
REMARK   34  A    between atoms: _79  and  _80
REMARK   35  A    between atoms: _85  and  _87
REMARK   36  A    between atoms: _87  and  _88
REMARK   37  A    between atoms: _87  and  _90
REMARK   38  A    between atoms: _90  and  _91
REMARK   39  A    between atoms: _96  and  _97
REMARK   40  A    between atoms: _99  and  _101
REMARK   41  A    between atoms: _101  and  _102
REMARK   42  A    between atoms: _101  and  _104
REMARK   43  A    between atoms: _104  and  _105
REMARK   44  A    between atoms: _110  and  _112
REMARK   45  A    between atoms: _112  and  _113
REMARK   46  A    between atoms: _112  and  _115
REMARK   47  A    between atoms: _115  and  _116
REMARK   48  A    between atoms: _116  and  _117
REMARK   49  A    between atoms: _122  and  _124
REMARK   50  A    between atoms: _124  and  _125
REMARK   51  A    between atoms: _124  and  _127
REMARK   52  A    between atoms: _127  and  _128
REMARK   53  A    between atoms: _128  and  _129
REMARK   54  A    between atoms: _129  and  _130
REMARK   55  A    between atoms: _139  and  _141
REMARK   56  A    between atoms: _141  and  _142
REMARK   57  A    between atoms: _141  and  _144
REMARK   58  A    between atoms: _144  and  _145
REMARK   59  A    between atoms: _148  and  _150
REMARK   60  A    between atoms: _150  and  _151
REMARK   61  A    between atoms: _150  and  _153
REMARK   62  A    between atoms: _153  and  _154
REMARK   63  A    between atoms: _157  and  _159
REMARK   64  A    between atoms: _159  and  _160
REMARK   65  A    between atoms: _159  and  _162
REMARK   66  A    between atoms: _162  and  _163
REMARK   67  A    between atoms: _166  and  _168
REMARK   68  A    between atoms: _168  and  _169
REMARK   69  A    between atoms: _168  and  _171
REMARK   70  A    between atoms: _171  and  _172
REMARK   71  A    between atoms: _175  and  _177
REMARK   72  A    between atoms: _177  and  _178
REMARK   73  A    between atoms: _177  and  _180
REMARK   74  A    between atoms: _180  and  _181
REMARK   75  A    between atoms: _181  and  _182
REMARK   76  A    between atoms: _187  and  _189
REMARK   77  A    between atoms: _189  and  _190
REMARK   78  A    between atoms: _189  and  _192
REMARK   79  A    between atoms: _192  and  _193
REMARK   80  A    between atoms: _196  and  _198
REMARK   81  A    between atoms: _198  and  _199
REMARK   82  A    between atoms: _198  and  _201
REMARK   83  A    between atoms: _201  and  _202
REMARK   84  A    between atoms: _207  and  _209
REMARK   85  A    between atoms: _209  and  _210
REMARK   86  A    between atoms: _209  and  _212
REMARK   87  A    between atoms: _215  and  _217
REMARK   88  A    between atoms: _217  and  _218
REMARK   89  A    between atoms: _217  and  _220
REMARK   90  A    between atoms: _220  and  _221
REMARK   91  A    between atoms: _224  and  _226
REMARK   92  A    between atoms: _226  and  _227
REMARK   93  A    between atoms: _226  and  _229
REMARK   94  A    between atoms: _229  and  _230
REMARK   95  A    between atoms: _233  and  _235
REMARK   96  A    between atoms: _235  and  _236
REMARK   97  A    between atoms: _235  and  _238
REMARK   98  A    between atoms: _238  and  _239
REMARK   99  A    between atoms: _245  and  _247
REMARK  100  A    between atoms: _247  and  _248
REMARK  101  A    between atoms: _247  and  _250
REMARK  102  A    between atoms: _250  and  _251
REMARK  103  A    between atoms: _256  and  _258
REMARK  104  A    between atoms: _258  and  _259
REMARK  105  A    between atoms: _258  and  _261
REMARK  106  A    between atoms: _261  and  _262
REMARK  107  A    between atoms: _272  and  _274
REMARK  108  A    between atoms: _274  and  _275
REMARK  109  A    between atoms: _274  and  _277
REMARK  110  A    between atoms: _277  and  _278
REMARK  111  A    between atoms: _283  and  _284
REMARK  112  A    between atoms: _286  and  _288
REMARK  113  A    between atoms: _288  and  _289
REMARK  114  A    between atoms: _288  and  _291
REMARK  115  A    between atoms: _291  and  _292
REMARK  116  A    between atoms: _297  and  _299
REMARK  117  A    between atoms: _299  and  _300
REMARK  118  A    between atoms: _299  and  _302
REMARK  119  A    between atoms: _302  and  _303
REMARK  120  A    between atoms: _308  and  _310
REMARK  121  A    between atoms: _310  and  _311
REMARK  122  A    between atoms: _310  and  _313
REMARK  123  A    between atoms: _313  and  _314
REMARK  124  A    between atoms: _314  and  _315
REMARK  125  A    between atoms: _320  and  _322
REMARK  126  A    between atoms: _322  and  _323
REMARK  127  A    between atoms: _322  and  _325
REMARK  128  A    between atoms: _325  and  _326
REMARK  129  A    between atoms: _331  and  _332
REMARK  130  A    between atoms: _334  and  _336
REMARK  131  A    between atoms: _336  and  _337
REMARK  132  A    between atoms: _336  and  _339
REMARK  133  A    between atoms: _339  and  _340
REMARK  134  A    between atoms: _343  and  _345
REMARK  135  A    between atoms: _345  and  _346
REMARK  136  A    between atoms: _349  and  _351
REMARK  137  A    between atoms: _351  and  _352
REMARK  138  A    between atoms: _351  and  _354
REMARK  139  A    between atoms: _354  and  _355
REMARK  140  A    between atoms: _357  and  _359
REMARK  141  A    between atoms: _359  and  _360
REMARK  142  A    between atoms: _359  and  _362
REMARK  143  A    between atoms: _362  and  _363
REMARK  144  A    between atoms: _363  and  _364
REMARK  145  A    between atoms: _366  and  _368
REMARK  146  A    between atoms: _368  and  _369
REMARK  147  A    between atoms: _368  and  _371
REMARK  148  A    between atoms: _371  and  _372
REMARK  149  A    between atoms: _374  and  _376
REMARK  150  A    between atoms: _376  and  _377
REMARK  151  A    between atoms: _376  and  _379
REMARK  152  A    between atoms: _379  and  _380
REMARK  153  A    between atoms: _385  and  _386
REMARK  154  A    between atoms: _388  and  _390
REMARK  155  A    between atoms: _390  and  _391
REMARK  156  A    between atoms: _390  and  _393
REMARK  157  A    between atoms: _393  and  _394
REMARK  158  A    between atoms: _396  and  _398
REMARK  159  A    between atoms: _398  and  _399
REMARK  160  A    between atoms: _402  and  _404
REMARK  161  A    between atoms: _404  and  _405
REMARK  162  A    between atoms: _404  and  _407
REMARK  163  A    between atoms: _407  and  _408
REMARK  164  A    between atoms: _418  and  _420
REMARK  165  A    between atoms: _420  and  _421
REMARK  166  A    between atoms: _420  and  _423
REMARK  167  A    between atoms: _426  and  _428
REMARK  168  A    between atoms: _428  and  _429
REMARK  169  A    between atoms: _428  and  _431
REMARK  170  A    between atoms: _431  and  _432
REMARK  171  A    between atoms: _435  and  _437
REMARK  172  A    between atoms: _437  and  _438
REMARK  173  A    between atoms: _437  and  _440
REMARK  174  A    between atoms: _440  and  _441
REMARK  175  A    between atoms: _446  and  _447
REMARK  176  A    between atoms: _449  and  _451
REMARK  177  A    between atoms: _451  and  _452
REMARK  178  A    between atoms: _451  and  _454
REMARK  179  A    between atoms: _457  and  _459
REMARK  180  A    between atoms: _459  and  _460
REMARK  181  A    between atoms: _459  and  _462
REMARK  182  A    between atoms: _462  and  _463
REMARK  183  A    between atoms: _469  and  _471
REMARK  184  A    between atoms: _471  and  _472
REMARK  185  A    between atoms: _471  and  _474
REMARK  186  A    between atoms: _474  and  _475
REMARK  187  A    between atoms: _475  and  _476
REMARK  188  A    between atoms: _481  and  _483
REMARK  189  A    between atoms: _483  and  _484
REMARK  190  A    between atoms: _483  and  _486
REMARK  191  A    between atoms: _486  and  _487
REMARK  192  A    between atoms: _489  and  _491
REMARK  193  A    between atoms: _491  and  _492
REMARK  194  A    between atoms: _491  and  _494
REMARK  195  A    between atoms: _494  and  _495
REMARK  196  A    between atoms: _500  and  _502
REMARK  197  A    between atoms: _502  and  _503
REMARK  198  A    between atoms: _502  and  _505
REMARK  199  A    between atoms: _505  and  _506
REMARK  200  A    between atoms: _516  and  _518
REMARK  201  A    between atoms: _518  and  _519
REMARK  202  A    between atoms: _518  and  _521
REMARK  203  A    between atoms: _521  and  _522
REMARK  204  A    between atoms: _525  and  _527
REMARK  205  A    between atoms: _527  and  _528
REMARK  206  A    between atoms: _527  and  _530
REMARK  207  A    between atoms: _530  and  _531
REMARK  208  A    between atoms: _536  and  _537
REMARK  209  A    between atoms: _539  and  _541
REMARK  210  A    between atoms: _541  and  _542
REMARK  211  A    between atoms: _541  and  _544
REMARK  212  A    between atoms: _544  and  _545
REMARK  213  A    between atoms: _548  and  _550
REMARK  214  A    between atoms: _550  and  _551
REMARK  215  A    between atoms: _550  and  _553
REMARK  216  A    between atoms: _553  and  _554
REMARK  217  A    between atoms: _554  and  _555
REMARK  218  A    between atoms: _558  and  _560
REMARK  219  A    between atoms: _560  and  _561
REMARK  220  A    between atoms: _560  and  _563
REMARK  221  A    between atoms: _563  and  _564
REMARK  222  A    between atoms: _569  and  _571
REMARK  223  A    between atoms: _571  and  _572
REMARK  224  A    between atoms: _574  and  _576
REMARK  225  A    between atoms: _576  and  _577
REMARK  226  A    between atoms: _576  and  _579
REMARK  227  A    between atoms: _579  and  _580
REMARK  228  A    between atoms: _580  and  _581
REMARK  229  A    between atoms: _583  and  _585
REMARK  230  A    between atoms: _585  and  _586
REMARK  231  A    between atoms: _585  and  _588
REMARK  232  A    between atoms: _588  and  _589
REMARK  233  A    between atoms: _592  and  _594
REMARK  234  A    between atoms: _594  and  _595
REMARK  235  A    between atoms: _594  and  _597
REMARK  236  A    between atoms: _597  and  _598
REMARK  237  A    between atoms: _608  and  _610
REMARK  238  A    between atoms: _610  and  _611
REMARK  239  A    between atoms: _610  and  _613
REMARK  240  A    between atoms: _613  and  _614
REMARK  241  A    between atoms: _616  and  _618
REMARK  242  A    between atoms: _618  and  _619
REMARK  243  A    between atoms: _618  and  _621
REMARK  244  A    between atoms: _621  and  _622
REMARK  245  A    between atoms: _627  and  _629
REMARK  246  A    between atoms: _629  and  _630
REMARK  247  A    between atoms: _629  and  _632
REMARK  248  A    between atoms: _632  and  _633
REMARK  249  A    between atoms: _639  and  _641
REMARK  250  A    between atoms: _641  and  _642
REMARK  251  A    between atoms: _641  and  _644
REMARK  252  A    between atoms: _644  and  _645
REMARK  253  A    between atoms: _645  and  _646
REMARK  254  A    between atoms: _649  and  _651
REMARK  255  A    between atoms: _651  and  _652
REMARK  256  A    between atoms: _651  and  _654
REMARK  257  A    between atoms: _654  and  _655
REMARK  258  A    between atoms: _665  and  _667
REMARK  259  A    between atoms: _667  and  _668
REMARK  260  A    between atoms: _667  and  _670
REMARK  261  A    between atoms: _670  and  _671
REMARK  262  A    between atoms: _674  and  _676
REMARK  263  A    between atoms: _676  and  _677
REMARK  264  A    between atoms: _676  and  _679
REMARK  265  A    between atoms: _679  and  _680
REMARK  266  A    between atoms: _682  and  _684
REMARK  267  A    between atoms: _684  and  _685
REMARK  268  A    between atoms: _684  and  _687
REMARK  269  A    between atoms: _687  and  _688
REMARK  270  A    between atoms: _690  and  _692
REMARK  271  A    between atoms: _692  and  _693
REMARK  272  A    between atoms: _692  and  _695
REMARK  273  A    between atoms: _695  and  _696
REMARK                            x       y       z     vdW  Elec       q    Type
REMARK                         _______ _______ _______ _____ _____    ______ ____
ROOT
ATOM      1  O   HOH     1      -8.223   6.817  46.882  0.00  0.00    +0.000 OA
ENDROOT
TORSDOF 0
REMARK  Name = ../refined-set-2016/3f5j/3f5j_pocket.pdb
REMARK  273 active torsions:
REMARK  status: ('A' for Active; 'I' for Inactive)
REMARK    1  A    between atoms: _1  and  _3
REMARK    2  A    between atoms: _3  and  _4
REMARK    3  A    between atoms: _3  and  _6
REMARK    4  A    between atoms: _9  and  _11
REMARK    5  A    between atoms: _11  and  _12
REMARK    6  A    between atoms: _11  and  _14
REMARK    7  A    between atoms: _14  and  _15
REMARK    8  A    between atoms: _18  and  _20
REMARK    9  A    between atoms: _20  and  _21
REMARK   10  A    between atoms: _20  and  _23
REMARK   11  A    between atoms: _23  and  _24
REMARK   12  A    between atoms: _26  and  _28
REMARK   13  A    between atoms: _28  and  _29
REMARK   14  A    between atoms: _28  and  _31
REMARK   15  A    between atoms: _31  and  _32
REMARK   16  A    between atoms: _32  and  _33
REMARK   17  A    between atoms: _38  and  _40
REMARK   18  A    between atoms: _40  and  _41
REMARK   19  A    between atoms: _40  and  _43
REMARK   20  A    between atoms: _43  and  _44
REMARK   21  A    between atoms: _44  and  _45
REMARK   22  A    between atoms: _45  and  _46
REMARK   23  A    between atoms: _55  and  _57
REMARK   24  A    between atoms: _57  and  _58
REMARK   25  A    between atoms: _57  and  _60
REMARK   26  A    between atoms: _60  and  _61
REMARK   27  A    between atoms: _63  and  _65
REMARK   28  A    between atoms: _65  and  _66
REMARK   29  A    between atoms: _65  and  _68
REMARK   30  A    between atoms: _68  and  _69
REMARK   31  A    between atoms: _74  and  _76
REMARK   32  A    between atoms: _76  and  _77
REMARK   33  A    between atoms: _76  and  _79
REMARK   34  A    between atoms: _79  and  _80
REMARK   35  A    between atoms: _85  and  _87
REMARK   36  A    between atoms: _87  and  _88
REMARK   37  A    between atoms: _87  and  _90
REMARK   38  A    between atoms: _90  and  _91
REMARK   39  A    between atoms: _96  and  _97
REMARK   40  A    between atoms: _99  and  _101
REMARK   41  A    between atoms: _101  and  _102
REMARK   42  A    between atoms: _101  and  _104
REMARK   43  A    between atoms: _104  and  _105
REMARK   44  A    between atoms: _110  and  _112
REMARK   45  A    between atoms: _112  and  _113
REMARK   46  A    between atoms: _112  and  _115
REMARK   47  A    between atoms: _115  and  _116
REMARK   48  A    between atoms: _116  and  _117
REMARK   49  A    between atoms: _122  and  _124
REMARK   50  A    between atoms: _124  and  _125
REMARK   51  A    between atoms: _124  and  _127
REMARK   52  A    between atoms: _127  and  _128
REMARK   53  A    between atoms: _128  and  _129
REMARK   54  A    between atoms: _129  and  _130
REMARK   55  A    between atoms: _139  and  _141
REMARK   56  A    between atoms: _141  and  _142
REMARK   57  A    between atoms: _141  and  _144
REMARK   58  A    between atoms: _144  and  _145
REMARK   59  A    between atoms: _148  and  _150
REMARK   60  A    between atoms: _150  and  _151
REMARK   61  A    between atoms: _150  and  _153
REMARK   62  A    between atoms: _153  and  _154
REMARK   63  A    between atoms: _157  and  _159
REMARK   64  A    between atoms: _159  and  _160
REMARK   65  A    between atoms: _159  and  _162
REMARK   66  A    between atoms: _162  and  _163
REMARK   67  A    between atoms: _166  and  _168
REMARK   68  A    between atoms: _168  and  _169
REMARK   69  A    between atoms: _168  and  _171
REMARK   70  A    between atoms: _171  and  _172
REMARK   71  A    between atoms: _175  and  _177
REMARK   72  A    between atoms: _177  and  _178
REMARK   73  A    between atoms: _177  and  _180
REMARK   74  A    between atoms: _180  and  _181
REMARK   75  A    between atoms: _181  and  _182
REMARK   76  A    between atoms: _187  and  _189
REMARK   77  A    between atoms: _189  and  _190
REMARK   78  A    between atoms: _189  and  _192
REMARK   79  A    between atoms: _192  and  _193
REMARK   80  A    between atoms: _196  and  _198
REMARK   81  A    between atoms: _198  and  _199
REMARK   82  A    between atoms: _198  and  _201
REMARK   83  A    between atoms: _201  and  _202
REMARK   84  A    between atoms: _207  and  _209
REMARK   85  A    between atoms: _209  and  _210
REMARK   86  A    between atoms: _209  and  _212
REMARK   87  A    between atoms: _215  and  _217
REMARK   88  A    between atoms: _217  and  _218
REMARK   89  A    between atoms: _217  and  _220
REMARK   90  A    between atoms: _220  and  _221
REMARK   91  A    between atoms: _224  and  _226
REMARK   92  A    between atoms: _226  and  _227
REMARK   93  A    between atoms: _226  and  _229
REMARK   94  A    between atoms: _229  and  _230
REMARK   95  A    between atoms: _233  and  _235
REMARK   96  A    between atoms: _235  and  _236
REMARK   97  A    between atoms: _235  and  _238
REMARK   98  A    between atoms: _238  and  _239
REMARK   99  A    between atoms: _245  and  _247
REMARK  100  A    between atoms: _247  and  _248
REMARK  101  A    between atoms: _247  and  _250
REMARK  102  A    between atoms: _250  and  _251
REMARK  103  A    between atoms: _256  and  _258
REMARK  104  A    between atoms: _258  and  _259
REMARK  105  A    between atoms: _258  and  _261
REMARK  106  A    between atoms: _261  and  _262
REMARK  107  A    between atoms: _272  and  _274
REMARK  108  A    between atoms: _274  and  _275
REMARK  109  A    between atoms: _274  and  _277
REMARK  110  A    between atoms: _277  and  _278
REMARK  111  A    between atoms: _283  and  _284
REMARK  112  A    between atoms: _286  and  _288
REMARK  113  A    between atoms: _288  and  _289
REMARK  114  A    between atoms: _288  and  _291
REMARK  115  A    between atoms: _291  and  _292
REMARK  116  A    between atoms: _297  and  _299
REMARK  117  A    between atoms: _299  and  _300
REMARK  118  A    between atoms: _299  and  _302
REMARK  119  A    between atoms: _302  and  _303
REMARK  120  A    between atoms: _308  and  _310
REMARK  121  A    between atoms: _310  and  _311
REMARK  122  A    between atoms: _310  and  _313
REMARK  123  A    between atoms: _313  and  _314
REMARK  124  A    between atoms: _314  and  _315
REMARK  125  A    between atoms: _320  and  _322
REMARK  126  A    between atoms: _322  and  _323
REMARK  127  A    between atoms: _322  and  _325
REMARK  128  A    between atoms: _325  and  _326
REMARK  129  A    between atoms: _331  and  _332
REMARK  130  A    between atoms: _334  and  _336
REMARK  131  A    between atoms: _336  and  _337
REMARK  132  A    between atoms: _336  and  _339
REMARK  133  A    between atoms: _339  and  _340
REMARK  134  A    between atoms: _343  and  _345
REMARK  135  A    between atoms: _345  and  _346
REMARK  136  A    between atoms: _349  and  _351
REMARK  137  A    between atoms: _351  and  _352
REMARK  138  A    between atoms: _351  and  _354
REMARK  139  A    between atoms: _354  and  _355
REMARK  140  A    between atoms: _357  and  _359
REMARK  141  A    between atoms: _359  and  _360
REMARK  142  A    between atoms: _359  and  _362
REMARK  143  A    between atoms: _362  and  _363
REMARK  144  A    between atoms: _363  and  _364
REMARK  145  A    between atoms: _366  and  _368
REMARK  146  A    between atoms: _368  and  _369
REMARK  147  A    between atoms: _368  and  _371
REMARK  148  A    between atoms: _371  and  _372
REMARK  149  A    between atoms: _374  and  _376
REMARK  150  A    between atoms: _376  and  _377
REMARK  151  A    between atoms: _376  and  _379
REMARK  152  A    between atoms: _379  and  _380
REMARK  153  A    between atoms: _385  and  _386
REMARK  154  A    between atoms: _388  and  _390
REMARK  155  A    between atoms: _390  and  _391
REMARK  156  A    between atoms: _390  and  _393
REMARK  157  A    between atoms: _393  and  _394
REMARK  158  A    between atoms: _396  and  _398
REMARK  159  A    between atoms: _398  and  _399
REMARK  160  A    between atoms: _402  and  _404
REMARK  161  A    between atoms: _404  and  _405
REMARK  162  A    between atoms: _404  and  _407
REMARK  163  A    between atoms: _407  and  _408
REMARK  164  A    between atoms: _418  and  _420
REMARK  165  A    between atoms: _420  and  _421
REMARK  166  A    between atoms: _420  and  _423
REMARK  167  A    between atoms: _426  and  _428
REMARK  168  A    between atoms: _428  and  _429
REMARK  169  A    between atoms: _428  and  _431
REMARK  170  A    between atoms: _431  and  _432
REMARK  171  A    between atoms: _435  and  _437
REMARK  172  A    between atoms: _437  and  _438
REMARK  173  A    between atoms: _437  and  _440
REMARK  174  A    between atoms: _440  and  _441
REMARK  175  A    between atoms: _446  and  _447
REMARK  176  A    between atoms: _449  and  _451
REMARK  177  A    between atoms: _451  and  _452
REMARK  178  A    between atoms: _451  and  _454
REMARK  179  A    between atoms: _457  and  _459
REMARK  180  A    between atoms: _459  and  _460
REMARK  181  A    between atoms: _459  and  _462
REMARK  182  A    between atoms: _462  and  _463
REMARK  183  A    between atoms: _469  and  _471
REMARK  184  A    between atoms: _471  and  _472
REMARK  185  A    between atoms: _471  and  _474
REMARK  186  A    between atoms: _474  and  _475
REMARK  187  A    between atoms: _475  and  _476
REMARK  188  A    between atoms: _481  and  _483
REMARK  189  A    between atoms: _483  and  _484
REMARK  190  A    between atoms: _483  and  _486
REMARK  191  A    between atoms: _486  and  _487
REMARK  192  A    between atoms: _489  and  _491
REMARK  193  A    between atoms: _491  and  _492
REMARK  194  A    between atoms: _491  and  _494
REMARK  195  A    between atoms: _494  and  _495
REMARK  196  A    between atoms: _500  and  _502
REMARK  197  A    between atoms: _502  and  _503
REMARK  198  A    between atoms: _502  and  _505
REMARK  199  A    between atoms: _505  and  _506
REMARK  200  A    between atoms: _516  and  _518
REMARK  201  A    between atoms: _518  and  _519
REMARK  202  A    between atoms: _518  and  _521
REMARK  203  A    between atoms: _521  and  _522
REMARK  204  A    between atoms: _525  and  _527
REMARK  205  A    between atoms: _527  and  _528
REMARK  206  A    between atoms: _527  and  _530
REMARK  207  A    between atoms: _530  and  _531
REMARK  208  A    between atoms: _536  and  _537
REMARK  209  A    between atoms: _539  and  _541
REMARK  210  A    between atoms: _541  and  _542
REMARK  211  A    between atoms: _541  and  _544
REMARK  212  A    between atoms: _544  and  _545
REMARK  213  A    between atoms: _548  and  _550
REMARK  214  A    between atoms: _550  and  _551
REMARK  215  A    between atoms: _550  and  _553
REMARK  216  A    between atoms: _553  and  _554
REMARK  217  A    between atoms: _554  and  _555
REMARK  218  A    between atoms: _558  and  _560
REMARK  219  A    between atoms: _560  and  _561
REMARK  220  A    between atoms: _560  and  _563
REMARK  221  A    between atoms: _563  and  _564
REMARK  222  A    between atoms: _569  and  _571
REMARK  223  A    between atoms: _571  and  _572
REMARK  224  A    between atoms: _574  and  _576
REMARK  225  A    between atoms: _576  and  _577
REMARK  226  A    between atoms: _576  and  _579
REMARK  227  A    between atoms: _579  and  _580
REMARK  228  A    between atoms: _580  and  _581
REMARK  229  A    between atoms: _583  and  _585
REMARK  230  A    between atoms: _585  and  _586
REMARK  231  A    between atoms: _585  and  _588
REMARK  232  A    between atoms: _588  and  _589
REMARK  233  A    between atoms: _592  and  _594
REMARK  234  A    between atoms: _594  and  _595
REMARK  235  A    between atoms: _594  and  _597
REMARK  236  A    between atoms: _597  and  _598
REMARK  237  A    between atoms: _608  and  _610
REMARK  238  A    between atoms: _610  and  _611
REMARK  239  A    between atoms: _610  and  _613
REMARK  240  A    between atoms: _613  and  _614
REMARK  241  A    between atoms: _616  and  _618
REMARK  242  A    between atoms: _618  and  _619
REMARK  243  A    between atoms: _618  and  _621
REMARK  244  A    between atoms: _621  and  _622
REMARK  245  A    between atoms: _627  and  _629
REMARK  246  A    between atoms: _629  and  _630
REMARK  247  A    between atoms: _629  and  _632
REMARK  248  A    between atoms: _632  and  _633
REMARK  249  A    between atoms: _639  and  _641
REMARK  250  A    between atoms: _641  and  _642
REMARK  251  A    between atoms: _641  and  _644
REMARK  252  A    between atoms: _644  and  _645
REMARK  253  A    between atoms: _645  and  _646
REMARK  254  A    between atoms: _649  and  _651
REMARK  255  A    between atoms: _651  and  _652
REMARK  256  A    between atoms: _651  and  _654
REMARK  257  A    between atoms: _654  and  _655
REMARK  258  A    between atoms: _665  and  _667
REMARK  259  A    between atoms: _667  and  _668
REMARK  260  A    between atoms: _667  and  _670
REMARK  261  A    between atoms: _670  and  _671
REMARK  262  A    between atoms: _674  and  _676
REMARK  263  A    between atoms: _676  and  _677
REMARK  264  A    between atoms: _676  and  _679
REMARK  265  A    between atoms: _679  and  _680
REMARK  266  A    between atoms: _682  and  _684
REMARK  267  A    between atoms: _684  and  _685
REMARK  268  A    between atoms: _684  and  _687
REMARK  269  A    between atoms: _687  and  _688
REMARK  270  A    between atoms: _690  and  _692
REMARK  271  A    between atoms: _692  and  _693
REMARK  272  A    between atoms: _692  and  _695
REMARK  273  A    between atoms: _695  and  _696
REMARK                            x       y       z     vdW  Elec       q    Type
REMARK                         _______ _______ _______ _____ _____    ______ ____
ROOT
ATOM      1  O   HOH     1      -5.086   4.061  37.160  0.00  0.00    +0.000 OA
ENDROOT
TORSDOF 0
REMARK  Name = ../refined-set-2016/3f5j/3f5j_pocket.pdb
REMARK  273 active torsions:
REMARK  status: ('A' for Active; 'I' for Inactive)
REMARK    1  A    between atoms: _1  and  _3
REMARK    2  A    between atoms: _3  and  _4
REMARK    3  A    between atoms: _3  and  _6
REMARK    4  A    between atoms: _9  and  _11
REMARK    5  A    between atoms: _11  and  _12
REMARK    6  A    between atoms: _11  and  _14
REMARK    7  A    between atoms: _14  and  _15
REMARK    8  A    between atoms: _18  and  _20
REMARK    9  A    between atoms: _20  and  _21
REMARK   10  A    between atoms: _20  and  _23
REMARK   11  A    between atoms: _23  and  _24
REMARK   12  A    between atoms: _26  and  _28
REMARK   13  A    between atoms: _28  and  _29
REMARK   14  A    between atoms: _28  and  _31
REMARK   15  A    between atoms: _31  and  _32
REMARK   16  A    between atoms: _32  and  _33
REMARK   17  A    between atoms: _38  and  _40
REMARK   18  A    between atoms: _40  and  _41
REMARK   19  A    between atoms: _40  and  _43
REMARK   20  A    between atoms: _43  and  _44
REMARK   21  A    between atoms: _44  and  _45
REMARK   22  A    between atoms: _45  and  _46
REMARK   23  A    between atoms: _55  and  _57
REMARK   24  A    between atoms: _57  and  _58
REMARK   25  A    between atoms: _57  and  _60
REMARK   26  A    between atoms: _60  and  _61
REMARK   27  A    between atoms: _63  and  _65
REMARK   28  A    between atoms: _65  and  _66
REMARK   29  A    between atoms: _65  and  _68
REMARK   30  A    between atoms: _68  and  _69
REMARK   31  A    between atoms: _74  and  _76
REMARK   32  A    between atoms: _76  and  _77
REMARK   33  A    between atoms: _76  and  _79
REMARK   34  A    between atoms: _79  and  _80
REMARK   35  A    between atoms: _85  and  _87
REMARK   36  A    between atoms: _87  and  _88
REMARK   37  A    between atoms: _87  and  _90
REMARK   38  A    between atoms: _90  and  _91
REMARK   39  A    between atoms: _96  and  _97
REMARK   40  A    between atoms: _99  and  _101
REMARK   41  A    between atoms: _101  and  _102
REMARK   42  A    between atoms: _101  and  _104
REMARK   43  A    between atoms: _104  and  _105
REMARK   44  A    between atoms: _110  and  _112
REMARK   45  A    between atoms: _112  and  _113
REMARK   46  A    between atoms: _112  and  _115
REMARK   47  A    between atoms: _115  and  _116
REMARK   48  A    between atoms: _116  and  _117
REMARK   49  A    between atoms: _122  and  _124
REMARK   50  A    between atoms: _124  and  _125
REMARK   51  A    between atoms: _124  and  _127
REMARK   52  A    between atoms: _127  and  _128
REMARK   53  A    between atoms: _128  and  _129
REMARK   54  A    between atoms: _129  and  _130
REMARK   55  A    between atoms: _139  and  _141
REMARK   56  A    between atoms: _141  and  _142
REMARK   57  A    between atoms: _141  and  _144
REMARK   58  A    between atoms: _144  and  _145
REMARK   59  A    between atoms: _148  and  _150
REMARK   60  A    between atoms: _150  and  _151
REMARK   61  A    between atoms: _150  and  _153
REMARK   62  A    between atoms: _153  and  _154
REMARK   63  A    between atoms: _157  and  _159
REMARK   64  A    between atoms: _159  and  _160
REMARK   65  A    between atoms: _159  and  _162
REMARK   66  A    between atoms: _162  and  _163
REMARK   67  A    between atoms: _166  and  _168
REMARK   68  A    between atoms: _168  and  _169
REMARK   69  A    between atoms: _168  and  _171
REMARK   70  A    between atoms: _171  and  _172
REMARK   71  A    between atoms: _175  and  _177
REMARK   72  A    between atoms: _177  and  _178
REMARK   73  A    between atoms: _177  and  _180
REMARK   74  A    between atoms: _180  and  _181
REMARK   75  A    between atoms: _181  and  _182
REMARK   76  A    between atoms: _187  and  _189
REMARK   77  A    between atoms: _189  and  _190
REMARK   78  A    between atoms: _189  and  _192
REMARK   79  A    between atoms: _192  and  _193
REMARK   80  A    between atoms: _196  and  _198
REMARK   81  A    between atoms: _198  and  _199
REMARK   82  A    between atoms: _198  and  _201
REMARK   83  A    between atoms: _201  and  _202
REMARK   84  A    between atoms: _207  and  _209
REMARK   85  A    between atoms: _209  and  _210
REMARK   86  A    between atoms: _209  and  _212
REMARK   87  A    between atoms: _215  and  _217
REMARK   88  A    between atoms: _217  and  _218
REMARK   89  A    between atoms: _217  and  _220
REMARK   90  A    between atoms: _220  and  _221
REMARK   91  A    between atoms: _224  and  _226
REMARK   92  A    between atoms: _226  and  _227
REMARK   93  A    between atoms: _226  and  _229
REMARK   94  A    between atoms: _229  and  _230
REMARK   95  A    between atoms: _233  and  _235
REMARK   96  A    between atoms: _235  and  _236
REMARK   97  A    between atoms: _235  and  _238
REMARK   98  A    between atoms: _238  and  _239
REMARK   99  A    between atoms: _245  and  _247
REMARK  100  A    between atoms: _247  and  _248
REMARK  101  A    between atoms: _247  and  _250
REMARK  102  A    between atoms: _250  and  _251
REMARK  103  A    between atoms: _256  and  _258
REMARK  104  A    between atoms: _258  and  _259
REMARK  105  A    between atoms: _258  and  _261
REMARK  106  A    between atoms: _261  and  _262
REMARK  107  A    between atoms: _272  and  _274
REMARK  108  A    between atoms: _274  and  _275
REMARK  109  A    between atoms: _274  and  _277
REMARK  110  A    between atoms: _277  and  _278
REMARK  111  A    between atoms: _283  and  _284
REMARK  112  A    between atoms: _286  and  _288
REMARK  113  A    between atoms: _288  and  _289
REMARK  114  A    between atoms: _288  and  _291
REMARK  115  A    between atoms: _291  and  _292
REMARK  116  A    between atoms: _297  and  _299
REMARK  117  A    between atoms: _299  and  _300
REMARK  118  A    between atoms: _299  and  _302
REMARK  119  A    between atoms: _302  and  _303
REMARK  120  A    between atoms: _308  and  _310
REMARK  121  A    between atoms: _310  and  _311
REMARK  122  A    between atoms: _310  and  _313
REMARK  123  A    between atoms: _313  and  _314
REMARK  124  A    between atoms: _314  and  _315
REMARK  125  A    between atoms: _320  and  _322
REMARK  126  A    between atoms: _322  and  _323
REMARK  127  A    between atoms: _322  and  _325
REMARK  128  A    between atoms: _325  and  _326
REMARK  129  A    between atoms: _331  and  _332
REMARK  130  A    between atoms: _334  and  _336
REMARK  131  A    between atoms: _336  and  _337
REMARK  132  A    between atoms: _336  and  _339
REMARK  133  A    between atoms: _339  and  _340
REMARK  134  A    between atoms: _343  and  _345
REMARK  135  A    between atoms: _345  and  _346
REMARK  136  A    between atoms: _349  and  _351
REMARK  137  A    between atoms: _351  and  _352
REMARK  138  A    between atoms: _351  and  _354
REMARK  139  A    between atoms: _354  and  _355
REMARK  140  A    between atoms: _357  and  _359
REMARK  141  A    between atoms: _359  and  _360
REMARK  142  A    between atoms: _359  and  _362
REMARK  143  A    between atoms: _362  and  _363
REMARK  144  A    between atoms: _363  and  _364
REMARK  145  A    between atoms: _366  and  _368
REMARK  146  A    between atoms: _368  and  _369
REMARK  147  A    between atoms: _368  and  _371
REMARK  148  A    between atoms: _371  and  _372
REMARK  149  A    between atoms: _374  and  _376
REMARK  150  A    between atoms: _376  and  _377
REMARK  151  A    between atoms: _376  and  _379
REMARK  152  A    between atoms: _379  and  _380
REMARK  153  A    between atoms: _385  and  _386
REMARK  154  A    between atoms: _388  and  _390
REMARK  155  A    between atoms: _390  and  _391
REMARK  156  A    between atoms: _390  and  _393
REMARK  157  A    between atoms: _393  and  _394
REMARK  158  A    between atoms: _396  and  _398
REMARK  159  A    between atoms: _398  and  _399
REMARK  160  A    between atoms: _402  and  _404
REMARK  161  A    between atoms: _404  and  _405
REMARK  162  A    between atoms: _404  and  _407
REMARK  163  A    between atoms: _407  and  _408
REMARK  164  A    between atoms: _418  and  _420
REMARK  165  A    between atoms: _420  and  _421
REMARK  166  A    between atoms: _420  and  _423
REMARK  167  A    between atoms: _426  and  _428
REMARK  168  A    between atoms: _428  and  _429
REMARK  169  A    between atoms: _428  and  _431
REMARK  170  A    between atoms: _431  and  _432
REMARK  171  A    between atoms: _435  and  _437
REMARK  172  A    between atoms: _437  and  _438
REMARK  173  A    between atoms: _437  and  _440
REMARK  174  A    between atoms: _440  and  _441
REMARK  175  A    between atoms: _446  and  _447
REMARK  176  A    between atoms: _449  and  _451
REMARK  177  A    between atoms: _451  and  _452
REMARK  178  A    between atoms: _451  and  _454
REMARK  179  A    between atoms: _457  and  _459
REMARK  180  A    between atoms: _459  and  _460
REMARK  181  A    between atoms: _459  and  _462
REMARK  182  A    between atoms: _462  and  _463
REMARK  183  A    between atoms: _469  and  _471
REMARK  184  A    between atoms: _471  and  _472
REMARK  185  A    between atoms: _471  and  _474
REMARK  186  A    between atoms: _474  and  _475
REMARK  187  A    between atoms: _475  and  _476
REMARK  188  A    between atoms: _481  and  _483
REMARK  189  A    between atoms: _483  and  _484
REMARK  190  A    between atoms: _483  and  _486
REMARK  191  A    between atoms: _486  and  _487
REMARK  192  A    between atoms: _489  and  _491
REMARK  193  A    between atoms: _491  and  _492
REMARK  194  A    between atoms: _491  and  _494
REMARK  195  A    between atoms: _494  and  _495
REMARK  196  A    between atoms: _500  and  _502
REMARK  197  A    between atoms: _502  and  _503
REMARK  198  A    between atoms: _502  and  _505
REMARK  199  A    between atoms: _505  and  _506
REMARK  200  A    between atoms: _516  and  _518
REMARK  201  A    between atoms: _518  and  _519
REMARK  202  A    between atoms: _518  and  _521
REMARK  203  A    between atoms: _521  and  _522
REMARK  204  A    between atoms: _525  and  _527
REMARK  205  A    between atoms: _527  and  _528
REMARK  206  A    between atoms: _527  and  _530
REMARK  207  A    between atoms: _530  and  _531
REMARK  208  A    between atoms: _536  and  _537
REMARK  209  A    between atoms: _539  and  _541
REMARK  210  A    between atoms: _541  and  _542
REMARK  211  A    between atoms: _541  and  _544
REMARK  212  A    between atoms: _544  and  _545
REMARK  213  A    between atoms: _548  and  _550
REMARK  214  A    between atoms: _550  and  _551
REMARK  215  A    between atoms: _550  and  _553
REMARK  216  A    between atoms: _553  and  _554
REMARK  217  A    between atoms: _554  and  _555
REMARK  218  A    between atoms: _558  and  _560
REMARK  219  A    between atoms: _560  and  _561
REMARK  220  A    between atoms: _560  and  _563
REMARK  221  A    between atoms: _563  and  _564
REMARK  222  A    between atoms: _569  and  _571
REMARK  223  A    between atoms: _571  and  _572
REMARK  224  A    between atoms: _574  and  _576
REMARK  225  A    between atoms: _576  and  _577
REMARK  226  A    between atoms: _576  and  _579
REMARK  227  A    between atoms: _579  and  _580
REMARK  228  A    between atoms: _580  and  _581
REMARK  229  A    between atoms: _583  and  _585
REMARK  230  A    between atoms: _585  and  _586
REMARK  231  A    between atoms: _585  and  _588
REMARK  232  A    between atoms: _588  and  _589
REMARK  233  A    between atoms: _592  and  _594
REMARK  234  A    between atoms: _594  and  _595
REMARK  235  A    between atoms: _594  and  _597
REMARK  236  A    between atoms: _597  and  _598
REMARK  237  A    between atoms: _608  and  _610
REMARK  238  A    between atoms: _610  and  _611
REMARK  239  A    between atoms: _610  and  _613
REMARK  240  A    between atoms: _613  and  _614
REMARK  241  A    between atoms: _616  and  _618
REMARK  242  A    between atoms: _618  and  _619
REMARK  243  A    between atoms: _618  and  _621
REMARK  244  A    between atoms: _621  and  _622
REMARK  245  A    between atoms: _627  and  _629
REMARK  246  A    between atoms: _629  and  _630
REMARK  247  A    between atoms: _629  and  _632
REMARK  248  A    between atoms: _632  and  _633
REMARK  249  A    between atoms: _639  and  _641
REMARK  250  A    between atoms: _641  and  _642
REMARK  251  A    between atoms: _641  and  _644
REMARK  252  A    between atoms: _644  and  _645
REMARK  253  A    between atoms: _645  and  _646
REMARK  254  A    between atoms: _649  and  _651
REMARK  255  A    between atoms: _651  and  _652
REMARK  256  A    between atoms: _651  and  _654
REMARK  257  A    between atoms: _654  and  _655
REMARK  258  A    between atoms: _665  and  _667
REMARK  259  A    between atoms: _667  and  _668
REMARK  260  A    between atoms: _667  and  _670
REMARK  261  A    between atoms: _670  and  _671
REMARK  262  A    between atoms: _674  and  _676
REMARK  263  A    between atoms: _676  and  _677
REMARK  264  A    between atoms: _676  and  _679
REMARK  265  A    between atoms: _679  and  _680
REMARK  266  A    between atoms: _682  and  _684
REMARK  267  A    between atoms: _684  and  _685
REMARK  268  A    between atoms: _684  and  _687
REMARK  269  A    between atoms: _687  and  _688
REMARK  270  A    between atoms: _690  and  _692
REMARK  271  A    between atoms: _692  and  _693
REMARK  272  A    between atoms: _692  and  _695
REMARK  273  A    between atoms: _695  and  _696
REMARK                            x       y       z     vdW  Elec       q    Type
REMARK                         _______ _______ _______ _____ _____    ______ ____
ROOT
ATOM      1  O   HOH     1      -1.461  -3.280  38.291  0.00  0.00    +0.000 OA
ENDROOT
TORSDOF 0
REMARK  Name = ../refined-set-2016/3f5j/3f5j_pocket.pdb
REMARK  273 active torsions:
REMARK  status: ('A' for Active; 'I' for Inactive)
REMARK    1  A    between atoms: _1  and  _3
REMARK    2  A    between atoms: _3  and  _4
REMARK    3  A    between atoms: _3  and  _6
REMARK    4  A    between atoms: _9  and  _11
REMARK    5  A    between atoms: _11  and  _12
REMARK    6  A    between atoms: _11  and  _14
REMARK    7  A    between atoms: _14  and  _15
REMARK    8  A    between atoms: _18  and  _20
REMARK    9  A    between atoms: _20  and  _21
REMARK   10  A    between atoms: _20  and  _23
REMARK   11  A    between atoms: _23  and  _24
REMARK   12  A    between atoms: _26  and  _28
REMARK   13  A    between atoms: _28  and  _29
REMARK   14  A    between atoms: _28  and  _31
REMARK   15  A    between atoms: _31  and  _32
REMARK   16  A    between atoms: _32  and  _33
REMARK   17  A    between atoms: _38  and  _40
REMARK   18  A    between atoms: _40  and  _41
REMARK   19  A    between atoms: _40  and  _43
REMARK   20  A    between atoms: _43  and  _44
REMARK   21  A    between atoms: _44  and  _45
REMARK   22  A    between atoms: _45  and  _46
REMARK   23  A    between atoms: _55  and  _57
REMARK   24  A    between atoms: _57  and  _58
REMARK   25  A    between atoms: _57  and  _60
REMARK   26  A    between atoms: _60  and  _61
REMARK   27  A    between atoms: _63  and  _65
REMARK   28  A    between atoms: _65  and  _66
REMARK   29  A    between atoms: _65  and  _68
REMARK   30  A    between atoms: _68  and  _69
REMARK   31  A    between atoms: _74  and  _76
REMARK   32  A    between atoms: _76  and  _77
REMARK   33  A    between atoms: _76  and  _79
REMARK   34  A    between atoms: _79  and  _80
REMARK   35  A    between atoms: _85  and  _87
REMARK   36  A    between atoms: _87  and  _88
REMARK   37  A    between atoms: _87  and  _90
REMARK   38  A    between atoms: _90  and  _91
REMARK   39  A    between atoms: _96  and  _97
REMARK   40  A    between atoms: _99  and  _101
REMARK   41  A    between atoms: _101  and  _102
REMARK   42  A    between atoms: _101  and  _104
REMARK   43  A    between atoms: _104  and  _105
REMARK   44  A    between atoms: _110  and  _112
REMARK   45  A    between atoms: _112  and  _113
REMARK   46  A    between atoms: _112  and  _115
REMARK   47  A    between atoms: _115  and  _116
REMARK   48  A    between atoms: _116  and  _117
REMARK   49  A    between atoms: _122  and  _124
REMARK   50  A    between atoms: _124  and  _125
REMARK   51  A    between atoms: _124  and  _127
REMARK   52  A    between atoms: _127  and  _128
REMARK   53  A    between atoms: _128  and  _129
REMARK   54  A    between atoms: _129  and  _130
REMARK   55  A    between atoms: _139  and  _141
REMARK   56  A    between atoms: _141  and  _142
REMARK   57  A    between atoms: _141  and  _144
REMARK   58  A    between atoms: _144  and  _145
REMARK   59  A    between atoms: _148  and  _150
REMARK   60  A    between atoms: _150  and  _151
REMARK   61  A    between atoms: _150  and  _153
REMARK   62  A    between atoms: _153  and  _154
REMARK   63  A    between atoms: _157  and  _159
REMARK   64  A    between atoms: _159  and  _160
REMARK   65  A    between atoms: _159  and  _162
REMARK   66  A    between atoms: _162  and  _163
REMARK   67  A    between atoms: _166  and  _168
REMARK   68  A    between atoms: _168  and  _169
REMARK   69  A    between atoms: _168  and  _171
REMARK   70  A    between atoms: _171  and  _172
REMARK   71  A    between atoms: _175  and  _177
REMARK   72  A    between atoms: _177  and  _178
REMARK   73  A    between atoms: _177  and  _180
REMARK   74  A    between atoms: _180  and  _181
REMARK   75  A    between atoms: _181  and  _182
REMARK   76  A    between atoms: _187  and  _189
REMARK   77  A    between atoms: _189  and  _190
REMARK   78  A    between atoms: _189  and  _192
REMARK   79  A    between atoms: _192  and  _193
REMARK   80  A    between atoms: _196  and  _198
REMARK   81  A    between atoms: _198  and  _199
REMARK   82  A    between atoms: _198  and  _201
REMARK   83  A    between atoms: _201  and  _202
REMARK   84  A    between atoms: _207  and  _209
REMARK   85  A    between atoms: _209  and  _210
REMARK   86  A    between atoms: _209  and  _212
REMARK   87  A    between atoms: _215  and  _217
REMARK   88  A    between atoms: _217  and  _218
REMARK   89  A    between atoms: _217  and  _220
REMARK   90  A    between atoms: _220  and  _221
REMARK   91  A    between atoms: _224  and  _226
REMARK   92  A    between atoms: _226  and  _227
REMARK   93  A    between atoms: _226  and  _229
REMARK   94  A    between atoms: _229  and  _230
REMARK   95  A    between atoms: _233  and  _235
REMARK   96  A    between atoms: _235  and  _236
REMARK   97  A    between atoms: _235  and  _238
REMARK   98  A    between atoms: _238  and  _239
REMARK   99  A    between atoms: _245  and  _247
REMARK  100  A    between atoms: _247  and  _248
REMARK  101  A    between atoms: _247  and  _250
REMARK  102  A    between atoms: _250  and  _251
REMARK  103  A    between atoms: _256  and  _258
REMARK  104  A    between atoms: _258  and  _259
REMARK  105  A    between atoms: _258  and  _261
REMARK  106  A    between atoms: _261  and  _262
REMARK  107  A    between atoms: _272  and  _274
REMARK  108  A    between atoms: _274  and  _275
REMARK  109  A    between atoms: _274  and  _277
REMARK  110  A    between atoms: _277  and  _278
REMARK  111  A    between atoms: _283  and  _284
REMARK  112  A    between atoms: _286  and  _288
REMARK  113  A    between atoms: _288  and  _289
REMARK  114  A    between atoms: _288  and  _291
REMARK  115  A    between atoms: _291  and  _292
REMARK  116  A    between atoms: _297  and  _299
REMARK  117  A    between atoms: _299  and  _300
REMARK  118  A    between atoms: _299  and  _302
REMARK  119  A    between atoms: _302  and  _303
REMARK  120  A    between atoms: _308  and  _310
REMARK  121  A    between atoms: _310  and  _311
REMARK  122  A    between atoms: _310  and  _313
REMARK  123  A    between atoms: _313  and  _314
REMARK  124  A    between atoms: _314  and  _315
REMARK  125  A    between atoms: _320  and  _322
REMARK  126  A    between atoms: _322  and  _323
REMARK  127  A    between atoms: _322  and  _325
REMARK  128  A    between atoms: _325  and  _326
REMARK  129  A    between atoms: _331  and  _332
REMARK  130  A    between atoms: _334  and  _336
REMARK  131  A    between atoms: _336  and  _337
REMARK  132  A    between atoms: _336  and  _339
REMARK  133  A    between atoms: _339  and  _340
REMARK  134  A    between atoms: _343  and  _345
REMARK  135  A    between atoms: _345  and  _346
REMARK  136  A    between atoms: _349  and  _351
REMARK  137  A    between atoms: _351  and  _352
REMARK  138  A    between atoms: _351  and  _354
REMARK  139  A    between atoms: _354  and  _355
REMARK  140  A    between atoms: _357  and  _359
REMARK  141  A    between atoms: _359  and  _360
REMARK  142  A    between atoms: _359  and  _362
REMARK  143  A    between atoms: _362  and  _363
REMARK  144  A    between atoms: _363  and  _364
REMARK  145  A    between atoms: _366  and  _368
REMARK  146  A    between atoms: _368  and  _369
REMARK  147  A    between atoms: _368  and  _371
REMARK  148  A    between atoms: _371  and  _372
REMARK  149  A    between atoms: _374  and  _376
REMARK  150  A    between atoms: _376  and  _377
REMARK  151  A    between atoms: _376  and  _379
REMARK  152  A    between atoms: _379  and  _380
REMARK  153  A    between atoms: _385  and  _386
REMARK  154  A    between atoms: _388  and  _390
REMARK  155  A    between atoms: _390  and  _391
REMARK  156  A    between atoms: _390  and  _393
REMARK  157  A    between atoms: _393  and  _394
REMARK  158  A    between atoms: _396  and  _398
REMARK  159  A    between atoms: _398  and  _399
REMARK  160  A    between atoms: _402  and  _404
REMARK  161  A    between atoms: _404  and  _405
REMARK  162  A    between atoms: _404  and  _407
REMARK  163  A    between atoms: _407  and  _408
REMARK  164  A    between atoms: _418  and  _420
REMARK  165  A    between atoms: _420  and  _421
REMARK  166  A    between atoms: _420  and  _423
REMARK  167  A    between atoms: _426  and  _428
REMARK  168  A    between atoms: _428  and  _429
REMARK  169  A    between atoms: _428  and  _431
REMARK  170  A    between atoms: _431  and  _432
REMARK  171  A    between atoms: _435  and  _437
REMARK  172  A    between atoms: _437  and  _438
REMARK  173  A    between atoms: _437  and  _440
REMARK  174  A    between atoms: _440  and  _441
REMARK  175  A    between atoms: _446  and  _447
REMARK  176  A    between atoms: _449  and  _451
REMARK  177  A    between atoms: _451  and  _452
REMARK  178  A    between atoms: _451  and  _454
REMARK  179  A    between atoms: _457  and  _459
REMARK  180  A    between atoms: _459  and  _460
REMARK  181  A    between atoms: _459  and  _462
REMARK  182  A    between atoms: _462  and  _463
REMARK  183  A    between atoms: _469  and  _471
REMARK  184  A    between atoms: _471  and  _472
REMARK  185  A    between atoms: _471  and  _474
REMARK  186  A    between atoms: _474  and  _475
REMARK  187  A    between atoms: _475  and  _476
REMARK  188  A    between atoms: _481  and  _483
REMARK  189  A    between atoms: _483  and  _484
REMARK  190  A    between atoms: _483  and  _486
REMARK  191  A    between atoms: _486  and  _487
REMARK  192  A    between atoms: _489  and  _491
REMARK  193  A    between atoms: _491  and  _492
REMARK  194  A    between atoms: _491  and  _494
REMARK  195  A    between atoms: _494  and  _495
REMARK  196  A    between atoms: _500  and  _502
REMARK  197  A    between atoms: _502  and  _503
REMARK  198  A    between atoms: _502  and  _505
REMARK  199  A    between atoms: _505  and  _506
REMARK  200  A    between atoms: _516  and  _518
REMARK  201  A    between atoms: _518  and  _519
REMARK  202  A    between atoms: _518  and  _521
REMARK  203  A    between atoms: _521  and  _522
REMARK  204  A    between atoms: _525  and  _527
REMARK  205  A    between atoms: _527  and  _528
REMARK  206  A    between atoms: _527  and  _530
REMARK  207  A    between atoms: _530  and  _531
REMARK  208  A    between atoms: _536  and  _537
REMARK  209  A    between atoms: _539  and  _541
REMARK  210  A    between atoms: _541  and  _542
REMARK  211  A    between atoms: _541  and  _544
REMARK  212  A    between atoms: _544  and  _545
REMARK  213  A    between atoms: _548  and  _550
REMARK  214  A    between atoms: _550  and  _551
REMARK  215  A    between atoms: _550  and  _553
REMARK  216  A    between atoms: _553  and  _554
REMARK  217  A    between atoms: _554  and  _555
REMARK  218  A    between atoms: _558  and  _560
REMARK  219  A    between atoms: _560  and  _561
REMARK  220  A    between atoms: _560  and  _563
REMARK  221  A    between atoms: _563  and  _564
REMARK  222  A    between atoms: _569  and  _571
REMARK  223  A    between atoms: _571  and  _572
REMARK  224  A    between atoms: _574  and  _576
REMARK  225  A    between atoms: _576  and  _577
REMARK  226  A    between atoms: _576  and  _579
REMARK  227  A    between atoms: _579  and  _580
REMARK  228  A    between atoms: _580  and  _581
REMARK  229  A    between atoms: _583  and  _585
REMARK  230  A    between atoms: _585  and  _586
REMARK  231  A    between atoms: _585  and  _588
REMARK  232  A    between atoms: _588  and  _589
REMARK  233  A    between atoms: _592  and  _594
REMARK  234  A    between atoms: _594  and  _595
REMARK  235  A    between atoms: _594  and  _597
REMARK  236  A    between atoms: _597  and  _598
REMARK  237  A    between atoms: _608  and  _610
REMARK  238  A    between atoms: _610  and  _611
REMARK  239  A    between atoms: _610  and  _613
REMARK  240  A    between atoms: _613  and  _614
REMARK  241  A    between atoms: _616  and  _618
REMARK  242  A    between atoms: _618  and  _619
REMARK  243  A    between atoms: _618  and  _621
REMARK  244  A    between atoms: _621  and  _622
REMARK  245  A    between atoms: _627  and  _629
REMARK  246  A    between atoms: _629  and  _630
REMARK  247  A    between atoms: _629  and  _632
REMARK  248  A    between atoms: _632  and  _633
REMARK  249  A    between atoms: _639  and  _641
REMARK  250  A    between atoms: _641  and  _642
REMARK  251  A    between atoms: _641  and  _644
REMARK  252  A    between atoms: _644  and  _645
REMARK  253  A    between atoms: _645  and  _646
REMARK  254  A    between atoms: _649  and  _651
REMARK  255  A    between atoms: _651  and  _652
REMARK  256  A    between atoms: _651  and  _654
REMARK  257  A    between atoms: _654  and  _655
REMARK  258  A    between atoms: _665  and  _667
REMARK  259  A    between atoms: _667  and  _668
REMARK  260  A    between atoms: _667  and  _670
REMARK  261  A    between atoms: _670  and  _671
REMARK  262  A    between atoms: _674  and  _676
REMARK  263  A    between atoms: _676  and  _677
REMARK  264  A    between atoms: _676  and  _679
REMARK  265  A    between atoms: _679  and  _680
REMARK  266  A    between atoms: _682  and  _684
REMARK  267  A    between atoms: _684  and  _685
REMARK  268  A    between atoms: _684  and  _687
REMARK  269  A    between atoms: _687  and  _688
REMARK  270  A    between atoms: _690  and  _692
REMARK  271  A    between atoms: _692  and  _693
REMARK  272  A    between atoms: _692  and  _695
REMARK  273  A    between atoms: _695  and  _696
REMARK                            x       y       z     vdW  Elec       q    Type
REMARK                         _______ _______ _______ _____ _____    ______ ____
ROOT
ATOM      1  O   HOH     1       2.911  -3.397  53.465  0.00  0.00    +0.000 OA
ENDROOT
TORSDOF 0
REMARK  Name = ../refined-set-2016/3f5j/3f5j_pocket.pdb
REMARK  273 active torsions:
REMARK  status: ('A' for Active; 'I' for Inactive)
REMARK    1  A    between atoms: _1  and  _3
REMARK    2  A    between atoms: _3  and  _4
REMARK    3  A    between atoms: _3  and  _6
REMARK    4  A    between atoms: _9  and  _11
REMARK    5  A    between atoms: _11  and  _12
REMARK    6  A    between atoms: _11  and  _14
REMARK    7  A    between atoms: _14  and  _15
REMARK    8  A    between atoms: _18  and  _20
REMARK    9  A    between atoms: _20  and  _21
REMARK   10  A    between atoms: _20  and  _23
REMARK   11  A    between atoms: _23  and  _24
REMARK   12  A    between atoms: _26  and  _28
REMARK   13  A    between atoms: _28  and  _29
REMARK   14  A    between atoms: _28  and  _31
REMARK   15  A    between atoms: _31  and  _32
REMARK   16  A    between atoms: _32  and  _33
REMARK   17  A    between atoms: _38  and  _40
REMARK   18  A    between atoms: _40  and  _41
REMARK   19  A    between atoms: _40  and  _43
REMARK   20  A    between atoms: _43  and  _44
REMARK   21  A    between atoms: _44  and  _45
REMARK   22  A    between atoms: _45  and  _46
REMARK   23  A    between atoms: _55  and  _57
REMARK   24  A    between atoms: _57  and  _58
REMARK   25  A    between atoms: _57  and  _60
REMARK   26  A    between atoms: _60  and  _61
REMARK   27  A    between atoms: _63  and  _65
REMARK   28  A    between atoms: _65  and  _66
REMARK   29  A    between atoms: _65  and  _68
REMARK   30  A    between atoms: _68  and  _69
REMARK   31  A    between atoms: _74  and  _76
REMARK   32  A    between atoms: _76  and  _77
REMARK   33  A    between atoms: _76  and  _79
REMARK   34  A    between atoms: _79  and  _80
REMARK   35  A    between atoms: _85  and  _87
REMARK   36  A    between atoms: _87  and  _88
REMARK   37  A    between atoms: _87  and  _90
REMARK   38  A    between atoms: _90  and  _91
REMARK   39  A    between atoms: _96  and  _97
REMARK   40  A    between atoms: _99  and  _101
REMARK   41  A    between atoms: _101  and  _102
REMARK   42  A    between atoms: _101  and  _104
REMARK   43  A    between atoms: _104  and  _105
REMARK   44  A    between atoms: _110  and  _112
REMARK   45  A    between atoms: _112  and  _113
REMARK   46  A    between atoms: _112  and  _115
REMARK   47  A    between atoms: _115  and  _116
REMARK   48  A    between atoms: _116  and  _117
REMARK   49  A    between atoms: _122  and  _124
REMARK   50  A    between atoms: _124  and  _125
REMARK   51  A    between atoms: _124  and  _127
REMARK   52  A    between atoms: _127  and  _128
REMARK   53  A    between atoms: _128  and  _129
REMARK   54  A    between atoms: _129  and  _130
REMARK   55  A    between atoms: _139  and  _141
REMARK   56  A    between atoms: _141  and  _142
REMARK   57  A    between atoms: _141  and  _144
REMARK   58  A    between atoms: _144  and  _145
REMARK   59  A    between atoms: _148  and  _150
REMARK   60  A    between atoms: _150  and  _151
REMARK   61  A    between atoms: _150  and  _153
REMARK   62  A    between atoms: _153  and  _154
REMARK   63  A    between atoms: _157  and  _159
REMARK   64  A    between atoms: _159  and  _160
REMARK   65  A    between atoms: _159  and  _162
REMARK   66  A    between atoms: _162  and  _163
REMARK   67  A    between atoms: _166  and  _168
REMARK   68  A    between atoms: _168  and  _169
REMARK   69  A    between atoms: _168  and  _171
REMARK   70  A    between atoms: _171  and  _172
REMARK   71  A    between atoms: _175  and  _177
REMARK   72  A    between atoms: _177  and  _178
REMARK   73  A    between atoms: _177  and  _180
REMARK   74  A    between atoms: _180  and  _181
REMARK   75  A    between atoms: _181  and  _182
REMARK   76  A    between atoms: _187  and  _189
REMARK   77  A    between atoms: _189  and  _190
REMARK   78  A    between atoms: _189  and  _192
REMARK   79  A    between atoms: _192  and  _193
REMARK   80  A    between atoms: _196  and  _198
REMARK   81  A    between atoms: _198  and  _199
REMARK   82  A    between atoms: _198  and  _201
REMARK   83  A    between atoms: _201  and  _202
REMARK   84  A    between atoms: _207  and  _209
REMARK   85  A    between atoms: _209  and  _210
REMARK   86  A    between atoms: _209  and  _212
REMARK   87  A    between atoms: _215  and  _217
REMARK   88  A    between atoms: _217  and  _218
REMARK   89  A    between atoms: _217  and  _220
REMARK   90  A    between atoms: _220  and  _221
REMARK   91  A    between atoms: _224  and  _226
REMARK   92  A    between atoms: _226  and  _227
REMARK   93  A    between atoms: _226  and  _229
REMARK   94  A    between atoms: _229  and  _230
REMARK   95  A    between atoms: _233  and  _235
REMARK   96  A    between atoms: _235  and  _236
REMARK   97  A    between atoms: _235  and  _238
REMARK   98  A    between atoms: _238  and  _239
REMARK   99  A    between atoms: _245  and  _247
REMARK  100  A    between atoms: _247  and  _248
REMARK  101  A    between atoms: _247  and  _250
REMARK  102  A    between atoms: _250  and  _251
REMARK  103  A    between atoms: _256  and  _258
REMARK  104  A    between atoms: _258  and  _259
REMARK  105  A    between atoms: _258  and  _261
REMARK  106  A    between atoms: _261  and  _262
REMARK  107  A    between atoms: _272  and  _274
REMARK  108  A    between atoms: _274  and  _275
REMARK  109  A    between atoms: _274  and  _277
REMARK  110  A    between atoms: _277  and  _278
REMARK  111  A    between atoms: _283  and  _284
REMARK  112  A    between atoms: _286  and  _288
REMARK  113  A    between atoms: _288  and  _289
REMARK  114  A    between atoms: _288  and  _291
REMARK  115  A    between atoms: _291  and  _292
REMARK  116  A    between atoms: _297  and  _299
REMARK  117  A    between atoms: _299  and  _300
REMARK  118  A    between atoms: _299  and  _302
REMARK  119  A    between atoms: _302  and  _303
REMARK  120  A    between atoms: _308  and  _310
REMARK  121  A    between atoms: _310  and  _311
REMARK  122  A    between atoms: _310  and  _313
REMARK  123  A    between atoms: _313  and  _314
REMARK  124  A    between atoms: _314  and  _315
REMARK  125  A    between atoms: _320  and  _322
REMARK  126  A    between atoms: _322  and  _323
REMARK  127  A    between atoms: _322  and  _325
REMARK  128  A    between atoms: _325  and  _326
REMARK  129  A    between atoms: _331  and  _332
REMARK  130  A    between atoms: _334  and  _336
REMARK  131  A    between atoms: _336  and  _337
REMARK  132  A    between atoms: _336  and  _339
REMARK  133  A    between atoms: _339  and  _340
REMARK  134  A    between atoms: _343  and  _345
REMARK  135  A    between atoms: _345  and  _346
REMARK  136  A    between atoms: _349  and  _351
REMARK  137  A    between atoms: _351  and  _352
REMARK  138  A    between atoms: _351  and  _354
REMARK  139  A    between atoms: _354  and  _355
REMARK  140  A    between atoms: _357  and  _359
REMARK  141  A    between atoms: _359  and  _360
REMARK  142  A    between atoms: _359  and  _362
REMARK  143  A    between atoms: _362  and  _363
REMARK  144  A    between atoms: _363  and  _364
REMARK  145  A    between atoms: _366  and  _368
REMARK  146  A    between atoms: _368  and  _369
REMARK  147  A    between atoms: _368  and  _371
REMARK  148  A    between atoms: _371  and  _372
REMARK  149  A    between atoms: _374  and  _376
REMARK  150  A    between atoms: _376  and  _377
REMARK  151  A    between atoms: _376  and  _379
REMARK  152  A    between atoms: _379  and  _380
REMARK  153  A    between atoms: _385  and  _386
REMARK  154  A    between atoms: _388  and  _390
REMARK  155  A    between atoms: _390  and  _391
REMARK  156  A    between atoms: _390  and  _393
REMARK  157  A    between atoms: _393  and  _394
REMARK  158  A    between atoms: _396  and  _398
REMARK  159  A    between atoms: _398  and  _399
REMARK  160  A    between atoms: _402  and  _404
REMARK  161  A    between atoms: _404  and  _405
REMARK  162  A    between atoms: _404  and  _407
REMARK  163  A    between atoms: _407  and  _408
REMARK  164  A    between atoms: _418  and  _420
REMARK  165  A    between atoms: _420  and  _421
REMARK  166  A    between atoms: _420  and  _423
REMARK  167  A    between atoms: _426  and  _428
REMARK  168  A    between atoms: _428  and  _429
REMARK  169  A    between atoms: _428  and  _431
REMARK  170  A    between atoms: _431  and  _432
REMARK  171  A    between atoms: _435  and  _437
REMARK  172  A    between atoms: _437  and  _438
REMARK  173  A    between atoms: _437  and  _440
REMARK  174  A    between atoms: _440  and  _441
REMARK  175  A    between atoms: _446  and  _447
REMARK  176  A    between atoms: _449  and  _451
REMARK  177  A    between atoms: _451  and  _452
REMARK  178  A    between atoms: _451  and  _454
REMARK  179  A    between atoms: _457  and  _459
REMARK  180  A    between atoms: _459  and  _460
REMARK  181  A    between atoms: _459  and  _462
REMARK  182  A    between atoms: _462  and  _463
REMARK  183  A    between atoms: _469  and  _471
REMARK  184  A    between atoms: _471  and  _472
REMARK  185  A    between atoms: _471  and  _474
REMARK  186  A    between atoms: _474  and  _475
REMARK  187  A    between atoms: _475  and  _476
REMARK  188  A    between atoms: _481  and  _483
REMARK  189  A    between atoms: _483  and  _484
REMARK  190  A    between atoms: _483  and  _486
REMARK  191  A    between atoms: _486  and  _487
REMARK  192  A    between atoms: _489  and  _491
REMARK  193  A    between atoms: _491  and  _492
REMARK  194  A    between atoms: _491  and  _494
REMARK  195  A    between atoms: _494  and  _495
REMARK  196  A    between atoms: _500  and  _502
REMARK  197  A    between atoms: _502  and  _503
REMARK  198  A    between atoms: _502  and  _505
REMARK  199  A    between atoms: _505  and  _506
REMARK  200  A    between atoms: _516  and  _518
REMARK  201  A    between atoms: _518  and  _519
REMARK  202  A    between atoms: _518  and  _521
REMARK  203  A    between atoms: _521  and  _522
REMARK  204  A    between atoms: _525  and  _527
REMARK  205  A    between atoms: _527  and  _528
REMARK  206  A    between atoms: _527  and  _530
REMARK  207  A    between atoms: _530  and  _531
REMARK  208  A    between atoms: _536  and  _537
REMARK  209  A    between atoms: _539  and  _541
REMARK  210  A    between atoms: _541  and  _542
REMARK  211  A    between atoms: _541  and  _544
REMARK  212  A    between atoms: _544  and  _545
REMARK  213  A    between atoms: _548  and  _550
REMARK  214  A    between atoms: _550  and  _551
REMARK  215  A    between atoms: _550  and  _553
REMARK  216  A    between atoms: _553  and  _554
REMARK  217  A    between atoms: _554  and  _555
REMARK  218  A    between atoms: _558  and  _560
REMARK  219  A    between atoms: _560  and  _561
REMARK  220  A    between atoms: _560  and  _563
REMARK  221  A    between atoms: _563  and  _564
REMARK  222  A    between atoms: _569  and  _571
REMARK  223  A    between atoms: _571  and  _572
REMARK  224  A    between atoms: _574  and  _576
REMARK  225  A    between atoms: _576  and  _577
REMARK  226  A    between atoms: _576  and  _579
REMARK  227  A    between atoms: _579  and  _580
REMARK  228  A    between atoms: _580  and  _581
REMARK  229  A    between atoms: _583  and  _585
REMARK  230  A    between atoms: _585  and  _586
REMARK  231  A    between atoms: _585  and  _588
REMARK  232  A    between atoms: _588  and  _589
REMARK  233  A    between atoms: _592  and  _594
REMARK  234  A    between atoms: _594  and  _595
REMARK  235  A    between atoms: _594  and  _597
REMARK  236  A    between atoms: _597  and  _598
REMARK  237  A    between atoms: _608  and  _610
REMARK  238  A    between atoms: _610  and  _611
REMARK  239  A    between atoms: _610  and  _613
REMARK  240  A    between atoms: _613  and  _614
REMARK  241  A    between atoms: _616  and  _618
REMARK  242  A    between atoms: _618  and  _619
REMARK  243  A    between atoms: _618  and  _621
REMARK  244  A    between atoms: _621  and  _622
REMARK  245  A    between atoms: _627  and  _629
REMARK  246  A    between atoms: _629  and  _630
REMARK  247  A    between atoms: _629  and  _632
REMARK  248  A    between atoms: _632  and  _633
REMARK  249  A    between atoms: _639  and  _641
REMARK  250  A    between atoms: _641  and  _642
REMARK  251  A    between atoms: _641  and  _644
REMARK  252  A    between atoms: _644  and  _645
REMARK  253  A    between atoms: _645  and  _646
REMARK  254  A    between atoms: _649  and  _651
REMARK  255  A    between atoms: _651  and  _652
REMARK  256  A    between atoms: _651  and  _654
REMARK  257  A    between atoms: _654  and  _655
REMARK  258  A    between atoms: _665  and  _667
REMARK  259  A    between atoms: _667  and  _668
REMARK  260  A    between atoms: _667  and  _670
REMARK  261  A    between atoms: _670  and  _671
REMARK  262  A    between atoms: _674  and  _676
REMARK  263  A    between atoms: _676  and  _677
REMARK  264  A    between atoms: _676  and  _679
REMARK  265  A    between atoms: _679  and  _680
REMARK  266  A    between atoms: _682  and  _684
REMARK  267  A    between atoms: _684  and  _685
REMARK  268  A    between atoms: _684  and  _687
REMARK  269  A    between atoms: _687  and  _688
REMARK  270  A    between atoms: _690  and  _692
REMARK  271  A    between atoms: _692  and  _693
REMARK  272  A    between atoms: _692  and  _695
REMARK  273  A    between atoms: _695  and  _696
REMARK                            x       y       z     vdW  Elec       q    Type
REMARK                         _______ _______ _______ _____ _____    ______ ____
ROOT
ATOM      1  O   HOH     1      -1.905   2.824  38.037  0.00  0.00    +0.000 OA
ENDROOT
TORSDOF 0
