REMARK  Name = ../refined-set-2016/3wgg/3wgg_pocket.pdb
REMARK  241 active torsions:
REMARK  status: ('A' for Active; 'I' for Inactive)
REMARK    1  A    between atoms: _1  and  _3
REMARK    2  A    between atoms: _3  and  _4
REMARK    3  A    between atoms: _3  and  _6
REMARK    4  A    between atoms: _6  and  _7
REMARK    5  A    between atoms: _10  and  _12
REMARK    6  A    between atoms: _12  and  _13
REMARK    7  A    between atoms: _12  and  _15
REMARK    8  A    between atoms: _15  and  _16
REMARK    9  A    between atoms: _19  and  _21
REMARK   10  A    between atoms: _21  and  _22
REMARK   11  A    between atoms: _24  and  _26
REMARK   12  A    between atoms: _26  and  _27
REMARK   13  A    between atoms: _30  and  _32
REMARK   14  A    between atoms: _32  and  _33
REMARK   15  A    between atoms: _35  and  _37
REMARK   16  A    between atoms: _37  and  _38
REMARK   17  A    between atoms: _37  and  _40
REMARK   18  A    between atoms: _40  and  _41
REMARK   19  A    between atoms: _46  and  _48
REMARK   20  A    between atoms: _48  and  _49
REMARK   21  A    between atoms: _48  and  _51
REMARK   22  A    between atoms: _51  and  _52
REMARK   23  A    between atoms: _55  and  _57
REMARK   24  A    between atoms: _57  and  _58
REMARK   25  A    between atoms: _60  and  _62
REMARK   26  A    between atoms: _62  and  _63
REMARK   27  A    between atoms: _62  and  _65
REMARK   28  A    between atoms: _65  and  _66
REMARK   29  A    between atoms: _66  and  _67
REMARK   30  A    between atoms: _72  and  _74
REMARK   31  A    between atoms: _74  and  _75
REMARK   32  A    between atoms: _78  and  _80
REMARK   33  A    between atoms: _80  and  _81
REMARK   34  A    between atoms: _80  and  _83
REMARK   35  A    between atoms: _83  and  _84
REMARK   36  A    between atoms: _87  and  _89
REMARK   37  A    between atoms: _89  and  _90
REMARK   38  A    between atoms: _89  and  _92
REMARK   39  A    between atoms: _92  and  _93
REMARK   40  A    between atoms: _96  and  _98
REMARK   41  A    between atoms: _98  and  _99
REMARK   42  A    between atoms: _98  and  _101
REMARK   43  A    between atoms: _101  and  _102
REMARK   44  A    between atoms: _108  and  _110
REMARK   45  A    between atoms: _110  and  _111
REMARK   46  A    between atoms: _110  and  _113
REMARK   47  A    between atoms: _113  and  _114
REMARK   48  A    between atoms: _117  and  _119
REMARK   49  A    between atoms: _119  and  _120
REMARK   50  A    between atoms: _119  and  _122
REMARK   51  A    between atoms: _122  and  _123
REMARK   52  A    between atoms: _126  and  _128
REMARK   53  A    between atoms: _128  and  _129
REMARK   54  A    between atoms: _128  and  _131
REMARK   55  A    between atoms: _131  and  _132
REMARK   56  A    between atoms: _138  and  _139
REMARK   57  A    between atoms: _144  and  _146
REMARK   58  A    between atoms: _146  and  _147
REMARK   59  A    between atoms: _146  and  _149
REMARK   60  A    between atoms: _149  and  _150
REMARK   61  A    between atoms: _150  and  _151
REMARK   62  A    between atoms: _151  and  _152
REMARK   63  A    between atoms: _161  and  _163
REMARK   64  A    between atoms: _163  and  _164
REMARK   65  A    between atoms: _163  and  _166
REMARK   66  A    between atoms: _166  and  _167
REMARK   67  A    between atoms: _170  and  _172
REMARK   68  A    between atoms: _172  and  _173
REMARK   69  A    between atoms: _172  and  _175
REMARK   70  A    between atoms: _175  and  _176
REMARK   71  A    between atoms: _182  and  _184
REMARK   72  A    between atoms: _184  and  _185
REMARK   73  A    between atoms: _184  and  _187
REMARK   74  A    between atoms: _190  and  _192
REMARK   75  A    between atoms: _192  and  _193
REMARK   76  A    between atoms: _192  and  _195
REMARK   77  A    between atoms: _195  and  _196
REMARK   78  A    between atoms: _196  and  _197
REMARK   79  A    between atoms: _199  and  _201
REMARK   80  A    between atoms: _201  and  _202
REMARK   81  A    between atoms: _201  and  _204
REMARK   82  A    between atoms: _204  and  _205
REMARK   83  A    between atoms: _208  and  _210
REMARK   84  A    between atoms: _210  and  _211
REMARK   85  A    between atoms: _210  and  _213
REMARK   86  A    between atoms: _216  and  _218
REMARK   87  A    between atoms: _218  and  _219
REMARK   88  A    between atoms: _218  and  _221
REMARK   89  A    between atoms: _221  and  _222
REMARK   90  A    between atoms: _222  and  _223
REMARK   91  A    between atoms: _226  and  _228
REMARK   92  A    between atoms: _228  and  _229
REMARK   93  A    between atoms: _228  and  _231
REMARK   94  A    between atoms: _234  and  _236
REMARK   95  A    between atoms: _236  and  _237
REMARK   96  A    between atoms: _236  and  _239
REMARK   97  A    between atoms: _239  and  _240
REMARK   98  A    between atoms: _243  and  _245
REMARK   99  A    between atoms: _245  and  _246
REMARK  100  A    between atoms: _245  and  _248
REMARK  101  A    between atoms: _250  and  _252
REMARK  102  A    between atoms: _252  and  _253
REMARK  103  A    between atoms: _252  and  _255
REMARK  104  A    between atoms: _255  and  _256
REMARK  105  A    between atoms: _260  and  _261
REMARK  106  A    between atoms: _266  and  _268
REMARK  107  A    between atoms: _268  and  _269
REMARK  108  A    between atoms: _268  and  _271
REMARK  109  A    between atoms: _271  and  _272
REMARK  110  A    between atoms: _272  and  _273
REMARK  111  A    between atoms: _273  and  _274
REMARK  112  A    between atoms: _274  and  _275
REMARK  113  A    between atoms: _279  and  _281
REMARK  114  A    between atoms: _281  and  _282
REMARK  115  A    between atoms: _281  and  _284
REMARK  116  A    between atoms: _284  and  _285
REMARK  117  A    between atoms: _288  and  _290
REMARK  118  A    between atoms: _290  and  _291
REMARK  119  A    between atoms: _290  and  _293
REMARK  120  A    between atoms: _293  and  _294
REMARK  121  A    between atoms: _299  and  _301
REMARK  122  A    between atoms: _301  and  _302
REMARK  123  A    between atoms: _305  and  _307
REMARK  124  A    between atoms: _307  and  _308
REMARK  125  A    between atoms: _307  and  _310
REMARK  126  A    between atoms: _310  and  _311
REMARK  127  A    between atoms: _316  and  _317
REMARK  128  A    between atoms: _319  and  _321
REMARK  129  A    between atoms: _321  and  _322
REMARK  130  A    between atoms: _321  and  _324
REMARK  131  A    between atoms: _324  and  _325
REMARK  132  A    between atoms: _328  and  _330
REMARK  133  A    between atoms: _330  and  _331
REMARK  134  A    between atoms: _334  and  _336
REMARK  135  A    between atoms: _336  and  _337
REMARK  136  A    between atoms: _336  and  _339
REMARK  137  A    between atoms: _339  and  _340
REMARK  138  A    between atoms: _340  and  _341
REMARK  139  A    between atoms: _341  and  _342
REMARK  140  A    between atoms: _351  and  _353
REMARK  141  A    between atoms: _353  and  _354
REMARK  142  A    between atoms: _353  and  _356
REMARK  143  A    between atoms: _356  and  _357
REMARK  144  A    between atoms: _362  and  _364
REMARK  145  A    between atoms: _364  and  _365
REMARK  146  A    between atoms: _364  and  _367
REMARK  147  A    between atoms: _367  and  _368
REMARK  148  A    between atoms: _374  and  _376
REMARK  149  A    between atoms: _376  and  _377
REMARK  150  A    between atoms: _376  and  _379
REMARK  151  A    between atoms: _379  and  _380
REMARK  152  A    between atoms: _384  and  _385
REMARK  153  A    between atoms: _390  and  _392
REMARK  154  A    between atoms: _392  and  _393
REMARK  155  A    between atoms: _392  and  _395
REMARK  156  A    between atoms: _395  and  _396
REMARK  157  A    between atoms: _399  and  _401
REMARK  158  A    between atoms: _401  and  _402
REMARK  159  A    between atoms: _401  and  _404
REMARK  160  A    between atoms: _407  and  _409
REMARK  161  A    between atoms: _409  and  _410
REMARK  162  A    between atoms: _409  and  _412
REMARK  163  A    between atoms: _412  and  _413
REMARK  164  A    between atoms: _418  and  _420
REMARK  165  A    between atoms: _420  and  _421
REMARK  166  A    between atoms: _420  and  _423
REMARK  167  A    between atoms: _423  and  _424
REMARK  168  A    between atoms: _427  and  _429
REMARK  169  A    between atoms: _429  and  _430
REMARK  170  A    between atoms: _429  and  _432
REMARK  171  A    between atoms: _432  and  _433
REMARK  172  A    between atoms: _435  and  _437
REMARK  173  A    between atoms: _437  and  _438
REMARK  174  A    between atoms: _437  and  _440
REMARK  175  A    between atoms: _440  and  _441
REMARK  176  A    between atoms: _447  and  _449
REMARK  177  A    between atoms: _449  and  _450
REMARK  178  A    between atoms: _449  and  _452
REMARK  179  A    between atoms: _452  and  _453
REMARK  180  A    between atoms: _458  and  _460
REMARK  181  A    between atoms: _460  and  _461
REMARK  182  A    between atoms: _460  and  _463
REMARK  183  A    between atoms: _463  and  _464
REMARK  184  A    between atoms: _467  and  _469
REMARK  185  A    between atoms: _469  and  _470
REMARK  186  A    between atoms: _472  and  _474
REMARK  187  A    between atoms: _474  and  _475
REMARK  188  A    between atoms: _474  and  _477
REMARK  189  A    between atoms: _477  and  _478
REMARK  190  A    between atoms: _478  and  _479
REMARK  191  A    between atoms: _484  and  _486
REMARK  192  A    between atoms: _486  and  _487
REMARK  193  A    between atoms: _490  and  _492
REMARK  194  A    between atoms: _492  and  _493
REMARK  195  A    between atoms: _492  and  _495
REMARK  196  A    between atoms: _495  and  _496
REMARK  197  A    between atoms: _499  and  _501
REMARK  198  A    between atoms: _501  and  _502
REMARK  199  A    between atoms: _505  and  _507
REMARK  200  A    between atoms: _507  and  _508
REMARK  201  A    between atoms: _507  and  _510
REMARK  202  A    between atoms: _510  and  _511
REMARK  203  A    between atoms: _516  and  _518
REMARK  204  A    between atoms: _518  and  _519
REMARK  205  A    between atoms: _518  and  _521
REMARK  206  A    between atoms: _521  and  _522
REMARK  207  A    between atoms: _527  and  _528
REMARK  208  A    between atoms: _530  and  _532
REMARK  209  A    between atoms: _532  and  _533
REMARK  210  A    between atoms: _532  and  _535
REMARK  211  A    between atoms: _535  and  _536
REMARK  212  A    between atoms: _539  and  _541
REMARK  213  A    between atoms: _541  and  _542
REMARK  214  A    between atoms: _541  and  _544
REMARK  215  A    between atoms: _544  and  _545
REMARK  216  A    between atoms: _547  and  _549
REMARK  217  A    between atoms: _549  and  _550
REMARK  218  A    between atoms: _549  and  _552
REMARK  219  A    between atoms: _552  and  _553
REMARK  220  A    between atoms: _559  and  _561
REMARK  221  A    between atoms: _561  and  _562
REMARK  222  A    between atoms: _561  and  _564
REMARK  223  A    between atoms: _564  and  _565
REMARK  224  A    between atoms: _565  and  _566
REMARK  225  A    between atoms: _569  and  _571
REMARK  226  A    between atoms: _571  and  _572
REMARK  227  A    between atoms: _571  and  _574
REMARK  228  A    between atoms: _574  and  _575
REMARK  229  A    between atoms: _575  and  _576
REMARK  230  A    between atoms: _576  and  _577
REMARK  231  A    between atoms: _577  and  _578
REMARK  232  A    between atoms: _582  and  _584
REMARK  233  A    between atoms: _584  and  _585
REMARK  234  A    between atoms: _584  and  _587
REMARK  235  A    between atoms: _587  and  _588
REMARK  236  A    between atoms: _590  and  _592
REMARK  237  A    between atoms: _592  and  _593
REMARK  238  A    between atoms: _592  and  _595
REMARK  239  A    between atoms: _595  and  _596
REMARK  240  A    between atoms: _596  and  _597
REMARK  241  A    between atoms: _597  and  _598
REMARK                            x       y       z     vdW  Elec       q    Type
REMARK                         _______ _______ _______ _____ _____    ______ ____
ROOT
ATOM      1  CA  ASN A   6       8.358  28.243  10.254  0.00  0.00    +0.158 C 
ENDROOT
BRANCH   1   3
ATOM      2  C   GLY A   5       6.401  26.984   9.718  0.00  0.00    +0.243 C 
ATOM      3  N   ASN A   6       6.999  27.842  10.542  0.00  0.00    -0.297 N 
ATOM      4  H   ASN A   6       6.500  28.215  11.374  0.00  0.00    +0.150 HD
ATOM      5  O   GLY A   5       6.985  26.518   8.741  0.00  0.00    -0.273 OA
BRANCH   2   6
ATOM      6  CA  GLY A   5       4.946  26.626   9.990  0.00  0.00    +0.176 C 
BRANCH   6   8
ATOM      7  C   ALA A   4       4.338  25.343   8.044  0.00  0.00    +0.241 C 
ATOM      8  N   GLY A   5       4.706  25.353   9.312  0.00  0.00    -0.295 N 
ATOM      9  H   GLY A   5       4.825  24.457   9.827  0.00  0.00    +0.150 HD
ATOM     10  O   ALA A   4       4.057  26.370   7.449  0.00  0.00    -0.273 OA
BRANCH   7  11
ATOM     11  CA  ALA A   4       4.254  23.998   7.342  0.00  0.00    +0.149 C 
ATOM     12  CB  ALA A   4       3.420  24.130   6.051  0.00  0.00    +0.031 C 
BRANCH  11  15
ATOM     13  C   GLY A   3       4.444  22.019   8.710  0.00  0.00    +0.243 C 
ATOM     14  O   GLY A   3       5.630  21.883   8.402  0.00  0.00    -0.273 OA
ATOM     15  N   ALA A   4       3.693  22.981   8.210  0.00  0.00    -0.297 N 
ATOM     16  H   ALA A   4       2.680  23.011   8.443  0.00  0.00    +0.150 HD
BRANCH  13  17
ATOM     17  CA  GLY A   3       3.789  21.067   9.687  0.00  0.00    +0.176 C 
BRANCH  17  20
ATOM     18  C   ILE A   2       4.444  18.701   9.298  0.00  0.00    +0.241 C 
ATOM     19  O   ILE A   2       5.290  18.655  10.189  0.00  0.00    -0.273 OA
ATOM     20  N   GLY A   3       3.703  19.772   9.022  0.00  0.00    -0.295 N 
ATOM     21  H   GLY A   3       2.999  19.676   8.263  0.00  0.00    +0.150 HD
BRANCH  18  22
ATOM     22  CA  ILE A   2       4.190  17.481   8.437  0.00  0.00    +0.148 C 
BRANCH  22  24
ATOM     23  C   ILE A   1       5.642  17.352   6.550  0.00  0.00    +0.238 C 
ATOM     24  N   ILE A   2       5.472  17.122   7.853  0.00  0.00    -0.297 N 
ATOM     25  H   ILE A   2       6.228  16.701   8.430  0.00  0.00    +0.150 HD
ATOM     26  O   ILE A   1       4.711  17.818   5.818  0.00  0.00    -0.274 OA
BRANCH  23  27
ATOM     27  CA  ILE A   1       7.036  17.116   6.003  0.00  0.00    +0.145 C 
BRANCH  27  28
ATOM     28  CB  ILE A   1       7.699  18.488   5.679  0.00  0.00    +0.025 C 
ATOM     29  CG2 ILE A   1       7.605  19.494   6.883  0.00  0.00    +0.002 C 
BRANCH  28  30
ATOM     30  CG1 ILE A   1       9.163  18.258   5.235  0.00  0.00    +0.002 C 
ATOM     31  CD1 ILE A   1       9.844  19.491   4.615  0.00  0.00    +0.000 C 
ENDBRANCH  28  30
ENDBRANCH  27  28
BRANCH  27  32
ATOM     32  N   ILE A   1       6.935  16.329   4.763  0.00  0.00    -0.238 NA
ATOM     33  H   ILE A   1       6.445  16.744   3.945  0.00  0.00    +0.142 HD
ENDBRANCH  27  32
ENDBRANCH  23  27
ENDBRANCH  22  24
BRANCH  22  34
ATOM     34  CB  ILE A   2       3.596  16.352   9.298  0.00  0.00    +0.027 C 
ATOM     35  CG2 ILE A   2       2.130  16.614   9.559  0.00  0.00    +0.002 C 
BRANCH  34  36
ATOM     36  CG1 ILE A   2       3.892  14.973   8.700  0.00  0.00    +0.002 C 
ATOM     37  CD1 ILE A   2       3.256  14.688   7.362  0.00  0.00    +0.000 C 
ENDBRANCH  34  36
ENDBRANCH  22  34
ENDBRANCH  18  22
ENDBRANCH  17  20
ENDBRANCH  13  17
ENDBRANCH  11  15
ENDBRANCH   7  11
ENDBRANCH   6   8
ENDBRANCH   2   6
ENDBRANCH   1   3
BRANCH   1  38
ATOM     38  C   ASN A   6       9.372  27.091  10.209  0.00  0.00    +0.241 C 
ATOM     39  N   LEU A   7       9.272  26.137  11.119  0.00  0.00    -0.297 N 
ATOM     40  H   LEU A   7       8.515  26.173  11.831  0.00  0.00    +0.150 HD
ATOM     41  O   ASN A   6      10.237  27.082   9.392  0.00  0.00    -0.273 OA
BRANCH  39  42
ATOM     42  CA  LEU A   7      10.214  25.048  11.121  0.00  0.00    +0.149 C 
BRANCH  42  43
ATOM     43  C   LEU A   7      10.043  24.189   9.875  0.00  0.00    +0.241 C 
ATOM     44  N   GLY A   8       8.824  23.754   9.573  0.00  0.00    -0.295 N 
ATOM     45  H   GLY A   8       8.002  24.048  10.138  0.00  0.00    +0.150 HD
ATOM     46  O   LEU A   7      11.016  23.887   9.214  0.00  0.00    -0.273 OA
BRANCH  44  47
ATOM     47  CA  GLY A   8       8.660  22.860   8.438  0.00  0.00    +0.176 C 
BRANCH  47  48
ATOM     48  C   GLY A   8       9.076  23.555   7.152  0.00  0.00    +0.243 C 
ATOM     49  N   GLN A   9       8.818  24.857   7.030  0.00  0.00    -0.297 N 
ATOM     50  H   GLN A   9       8.298  25.362   7.776  0.00  0.00    +0.150 HD
ATOM     51  O   GLY A   8       9.625  22.926   6.278  0.00  0.00    -0.273 OA
BRANCH  49  52
ATOM     52  CA  GLN A   9       9.283  25.580   5.814  0.00  0.00    +0.149 C 
BRANCH  52  53
ATOM     53  C   GLN A   9      10.795  25.791   5.771  0.00  0.00    +0.241 C 
ATOM     54  N   ALA A  10      11.439  25.987   6.925  0.00  0.00    -0.297 N 
ATOM     55  H   ALA A  10      10.897  26.135   7.800  0.00  0.00    +0.150 HD
ATOM     56  O   GLN A   9      11.384  25.733   4.700  0.00  0.00    -0.273 OA
BRANCH  54  57
ATOM     57  CA  ALA A  10      12.913  25.995   6.968  0.00  0.00    +0.149 C 
ATOM     58  CB  ALA A  10      13.424  26.317   8.376  0.00  0.00    +0.031 C 
BRANCH  57  59
ATOM     59  C   ALA A  10      13.457  24.662   6.502  0.00  0.00    +0.241 C 
ATOM     60  N   ILE A  11      12.871  23.559   6.957  0.00  0.00    -0.298 N 
ATOM     61  H   ILE A  11      12.038  23.611   7.578  0.00  0.00    +0.150 HD
ATOM     62  O   ALA A  10      14.371  24.599   5.684  0.00  0.00    -0.273 OA
BRANCH  60  63
ATOM     63  CA  ILE A  11      13.435  22.268   6.556  0.00  0.00    +0.137 C 
BRANCH  63  64
ATOM     64  C   ILE A  11      13.190  21.992   5.073  0.00  0.00    +0.227 C 
ATOM     65  O   ILE A  11      14.031  21.365   4.393  0.00  0.00    -0.286 OA
ENDBRANCH  63  64
BRANCH  63  66
ATOM     66  CB  ILE A  11      12.830  21.138   7.401  0.00  0.00    +0.026 C 
ATOM     67  CG2 ILE A  11      13.239  19.745   6.879  0.00  0.00    +0.002 C 
BRANCH  66  68
ATOM     68  CG1 ILE A  11      13.174  21.305   8.886  0.00  0.00    +0.002 C 
ATOM     69  CD1 ILE A  11      14.661  21.484   9.188  0.00  0.00    +0.000 C 
ENDBRANCH  66  68
ENDBRANCH  63  66
ENDBRANCH  60  63
ENDBRANCH  57  59
ENDBRANCH  54  57
ENDBRANCH  52  53
BRANCH  52  70
ATOM     70  CB  GLN A   9       8.554  26.948   5.653  0.00  0.00    +0.039 C 
BRANCH  70  71
ATOM     71  CG  GLN A   9       7.024  26.825   5.520  0.00  0.00    +0.087 C 
BRANCH  71  72
ATOM     72  CD  GLN A   9       6.341  28.180   5.262  0.00  0.00    +0.219 C 
ATOM     73  NE2 GLN A   9       5.254  28.462   6.015  0.00  0.00    -0.329 N 
ATOM     74 HE21 GLN A   9       4.858  27.738   6.649  0.00  0.00    +0.145 HD
ATOM     75 HE22 GLN A   9       4.813  29.403   5.961  0.00  0.00    +0.145 HD
ATOM     76  OE1 GLN A   9       6.855  29.007   4.488  0.00  0.00    -0.275 OA
ENDBRANCH  71  72
ENDBRANCH  70  71
ENDBRANCH  52  70
ENDBRANCH  49  52
ENDBRANCH  47  48
ENDBRANCH  44  47
ENDBRANCH  42  43
BRANCH  42  77
ATOM     77  CB  LEU A   7      10.090  24.208  12.388  0.00  0.00    +0.029 C 
BRANCH  77  78
ATOM     78  CG  LEU A   7      11.018  22.992  12.472  0.00  0.00    +0.002 C 
ATOM     79  CD2 LEU A   7      10.678  22.176  13.723  0.00  0.00    +0.000 C 
ATOM     80  CD1 LEU A   7      12.465  23.397  12.457  0.00  0.00    +0.000 C 
ENDBRANCH  77  78
ENDBRANCH  42  77
ENDBRANCH  39  42
ENDBRANCH   1  38
BRANCH   1  81
ATOM     81  CB  ASN A   6       8.821  29.260  11.292  0.00  0.00    +0.114 C 
BRANCH  81  82
ATOM     82  CG  ASN A   6       8.063  30.552  11.190  0.00  0.00    +0.222 C 
ATOM     83  OD1 ASN A   6       7.479  30.983  12.159  0.00  0.00    -0.275 OA
ATOM     84  ND2 ASN A   6       8.037  31.150  10.018  0.00  0.00    -0.329 N 
ATOM     85 HD21 ASN A   6       7.498  32.031   9.896  0.00  0.00    +0.145 HD
ATOM     86 HD22 ASN A   6       8.555  30.741   9.214  0.00  0.00    +0.145 HD
ENDBRANCH  81  82
ENDBRANCH   1  81
TORSDOF 35
REMARK  Name = ../refined-set-2016/3wgg/3wgg_pocket.pdb
REMARK  241 active torsions:
REMARK  status: ('A' for Active; 'I' for Inactive)
REMARK    1  A    between atoms: _1  and  _3
REMARK    2  A    between atoms: _3  and  _4
REMARK    3  A    between atoms: _3  and  _6
REMARK    4  A    between atoms: _6  and  _7
REMARK    5  A    between atoms: _10  and  _12
REMARK    6  A    between atoms: _12  and  _13
REMARK    7  A    between atoms: _12  and  _15
REMARK    8  A    between atoms: _15  and  _16
REMARK    9  A    between atoms: _19  and  _21
REMARK   10  A    between atoms: _21  and  _22
REMARK   11  A    between atoms: _24  and  _26
REMARK   12  A    between atoms: _26  and  _27
REMARK   13  A    between atoms: _30  and  _32
REMARK   14  A    between atoms: _32  and  _33
REMARK   15  A    between atoms: _35  and  _37
REMARK   16  A    between atoms: _37  and  _38
REMARK   17  A    between atoms: _37  and  _40
REMARK   18  A    between atoms: _40  and  _41
REMARK   19  A    between atoms: _46  and  _48
REMARK   20  A    between atoms: _48  and  _49
REMARK   21  A    between atoms: _48  and  _51
REMARK   22  A    between atoms: _51  and  _52
REMARK   23  A    between atoms: _55  and  _57
REMARK   24  A    between atoms: _57  and  _58
REMARK   25  A    between atoms: _60  and  _62
REMARK   26  A    between atoms: _62  and  _63
REMARK   27  A    between atoms: _62  and  _65
REMARK   28  A    between atoms: _65  and  _66
REMARK   29  A    between atoms: _66  and  _67
REMARK   30  A    between atoms: _72  and  _74
REMARK   31  A    between atoms: _74  and  _75
REMARK   32  A    between atoms: _78  and  _80
REMARK   33  A    between atoms: _80  and  _81
REMARK   34  A    between atoms: _80  and  _83
REMARK   35  A    between atoms: _83  and  _84
REMARK   36  A    between atoms: _87  and  _89
REMARK   37  A    between atoms: _89  and  _90
REMARK   38  A    between atoms: _89  and  _92
REMARK   39  A    between atoms: _92  and  _93
REMARK   40  A    between atoms: _96  and  _98
REMARK   41  A    between atoms: _98  and  _99
REMARK   42  A    between atoms: _98  and  _101
REMARK   43  A    between atoms: _101  and  _102
REMARK   44  A    between atoms: _108  and  _110
REMARK   45  A    between atoms: _110  and  _111
REMARK   46  A    between atoms: _110  and  _113
REMARK   47  A    between atoms: _113  and  _114
REMARK   48  A    between atoms: _117  and  _119
REMARK   49  A    between atoms: _119  and  _120
REMARK   50  A    between atoms: _119  and  _122
REMARK   51  A    between atoms: _122  and  _123
REMARK   52  A    between atoms: _126  and  _128
REMARK   53  A    between atoms: _128  and  _129
REMARK   54  A    between atoms: _128  and  _131
REMARK   55  A    between atoms: _131  and  _132
REMARK   56  A    between atoms: _138  and  _139
REMARK   57  A    between atoms: _144  and  _146
REMARK   58  A    between atoms: _146  and  _147
REMARK   59  A    between atoms: _146  and  _149
REMARK   60  A    between atoms: _149  and  _150
REMARK   61  A    between atoms: _150  and  _151
REMARK   62  A    between atoms: _151  and  _152
REMARK   63  A    between atoms: _161  and  _163
REMARK   64  A    between atoms: _163  and  _164
REMARK   65  A    between atoms: _163  and  _166
REMARK   66  A    between atoms: _166  and  _167
REMARK   67  A    between atoms: _170  and  _172
REMARK   68  A    between atoms: _172  and  _173
REMARK   69  A    between atoms: _172  and  _175
REMARK   70  A    between atoms: _175  and  _176
REMARK   71  A    between atoms: _182  and  _184
REMARK   72  A    between atoms: _184  and  _185
REMARK   73  A    between atoms: _184  and  _187
REMARK   74  A    between atoms: _190  and  _192
REMARK   75  A    between atoms: _192  and  _193
REMARK   76  A    between atoms: _192  and  _195
REMARK   77  A    between atoms: _195  and  _196
REMARK   78  A    between atoms: _196  and  _197
REMARK   79  A    between atoms: _199  and  _201
REMARK   80  A    between atoms: _201  and  _202
REMARK   81  A    between atoms: _201  and  _204
REMARK   82  A    between atoms: _204  and  _205
REMARK   83  A    between atoms: _208  and  _210
REMARK   84  A    between atoms: _210  and  _211
REMARK   85  A    between atoms: _210  and  _213
REMARK   86  A    between atoms: _216  and  _218
REMARK   87  A    between atoms: _218  and  _219
REMARK   88  A    between atoms: _218  and  _221
REMARK   89  A    between atoms: _221  and  _222
REMARK   90  A    between atoms: _222  and  _223
REMARK   91  A    between atoms: _226  and  _228
REMARK   92  A    between atoms: _228  and  _229
REMARK   93  A    between atoms: _228  and  _231
REMARK   94  A    between atoms: _234  and  _236
REMARK   95  A    between atoms: _236  and  _237
REMARK   96  A    between atoms: _236  and  _239
REMARK   97  A    between atoms: _239  and  _240
REMARK   98  A    between atoms: _243  and  _245
REMARK   99  A    between atoms: _245  and  _246
REMARK  100  A    between atoms: _245  and  _248
REMARK  101  A    between atoms: _250  and  _252
REMARK  102  A    between atoms: _252  and  _253
REMARK  103  A    between atoms: _252  and  _255
REMARK  104  A    between atoms: _255  and  _256
REMARK  105  A    between atoms: _260  and  _261
REMARK  106  A    between atoms: _266  and  _268
REMARK  107  A    between atoms: _268  and  _269
REMARK  108  A    between atoms: _268  and  _271
REMARK  109  A    between atoms: _271  and  _272
REMARK  110  A    between atoms: _272  and  _273
REMARK  111  A    between atoms: _273  and  _274
REMARK  112  A    between atoms: _274  and  _275
REMARK  113  A    between atoms: _279  and  _281
REMARK  114  A    between atoms: _281  and  _282
REMARK  115  A    between atoms: _281  and  _284
REMARK  116  A    between atoms: _284  and  _285
REMARK  117  A    between atoms: _288  and  _290
REMARK  118  A    between atoms: _290  and  _291
REMARK  119  A    between atoms: _290  and  _293
REMARK  120  A    between atoms: _293  and  _294
REMARK  121  A    between atoms: _299  and  _301
REMARK  122  A    between atoms: _301  and  _302
REMARK  123  A    between atoms: _305  and  _307
REMARK  124  A    between atoms: _307  and  _308
REMARK  125  A    between atoms: _307  and  _310
REMARK  126  A    between atoms: _310  and  _311
REMARK  127  A    between atoms: _316  and  _317
REMARK  128  A    between atoms: _319  and  _321
REMARK  129  A    between atoms: _321  and  _322
REMARK  130  A    between atoms: _321  and  _324
REMARK  131  A    between atoms: _324  and  _325
REMARK  132  A    between atoms: _328  and  _330
REMARK  133  A    between atoms: _330  and  _331
REMARK  134  A    between atoms: _334  and  _336
REMARK  135  A    between atoms: _336  and  _337
REMARK  136  A    between atoms: _336  and  _339
REMARK  137  A    between atoms: _339  and  _340
REMARK  138  A    between atoms: _340  and  _341
REMARK  139  A    between atoms: _341  and  _342
REMARK  140  A    between atoms: _351  and  _353
REMARK  141  A    between atoms: _353  and  _354
REMARK  142  A    between atoms: _353  and  _356
REMARK  143  A    between atoms: _356  and  _357
REMARK  144  A    between atoms: _362  and  _364
REMARK  145  A    between atoms: _364  and  _365
REMARK  146  A    between atoms: _364  and  _367
REMARK  147  A    between atoms: _367  and  _368
REMARK  148  A    between atoms: _374  and  _376
REMARK  149  A    between atoms: _376  and  _377
REMARK  150  A    between atoms: _376  and  _379
REMARK  151  A    between atoms: _379  and  _380
REMARK  152  A    between atoms: _384  and  _385
REMARK  153  A    between atoms: _390  and  _392
REMARK  154  A    between atoms: _392  and  _393
REMARK  155  A    between atoms: _392  and  _395
REMARK  156  A    between atoms: _395  and  _396
REMARK  157  A    between atoms: _399  and  _401
REMARK  158  A    between atoms: _401  and  _402
REMARK  159  A    between atoms: _401  and  _404
REMARK  160  A    between atoms: _407  and  _409
REMARK  161  A    between atoms: _409  and  _410
REMARK  162  A    between atoms: _409  and  _412
REMARK  163  A    between atoms: _412  and  _413
REMARK  164  A    between atoms: _418  and  _420
REMARK  165  A    between atoms: _420  and  _421
REMARK  166  A    between atoms: _420  and  _423
REMARK  167  A    between atoms: _423  and  _424
REMARK  168  A    between atoms: _427  and  _429
REMARK  169  A    between atoms: _429  and  _430
REMARK  170  A    between atoms: _429  and  _432
REMARK  171  A    between atoms: _432  and  _433
REMARK  172  A    between atoms: _435  and  _437
REMARK  173  A    between atoms: _437  and  _438
REMARK  174  A    between atoms: _437  and  _440
REMARK  175  A    between atoms: _440  and  _441
REMARK  176  A    between atoms: _447  and  _449
REMARK  177  A    between atoms: _449  and  _450
REMARK  178  A    between atoms: _449  and  _452
REMARK  179  A    between atoms: _452  and  _453
REMARK  180  A    between atoms: _458  and  _460
REMARK  181  A    between atoms: _460  and  _461
REMARK  182  A    between atoms: _460  and  _463
REMARK  183  A    between atoms: _463  and  _464
REMARK  184  A    between atoms: _467  and  _469
REMARK  185  A    between atoms: _469  and  _470
REMARK  186  A    between atoms: _472  and  _474
REMARK  187  A    between atoms: _474  and  _475
REMARK  188  A    between atoms: _474  and  _477
REMARK  189  A    between atoms: _477  and  _478
REMARK  190  A    between atoms: _478  and  _479
REMARK  191  A    between atoms: _484  and  _486
REMARK  192  A    between atoms: _486  and  _487
REMARK  193  A    between atoms: _490  and  _492
REMARK  194  A    between atoms: _492  and  _493
REMARK  195  A    between atoms: _492  and  _495
REMARK  196  A    between atoms: _495  and  _496
REMARK  197  A    between atoms: _499  and  _501
REMARK  198  A    between atoms: _501  and  _502
REMARK  199  A    between atoms: _505  and  _507
REMARK  200  A    between atoms: _507  and  _508
REMARK  201  A    between atoms: _507  and  _510
REMARK  202  A    between atoms: _510  and  _511
REMARK  203  A    between atoms: _516  and  _518
REMARK  204  A    between atoms: _518  and  _519
REMARK  205  A    between atoms: _518  and  _521
REMARK  206  A    between atoms: _521  and  _522
REMARK  207  A    between atoms: _527  and  _528
REMARK  208  A    between atoms: _530  and  _532
REMARK  209  A    between atoms: _532  and  _533
REMARK  210  A    between atoms: _532  and  _535
REMARK  211  A    between atoms: _535  and  _536
REMARK  212  A    between atoms: _539  and  _541
REMARK  213  A    between atoms: _541  and  _542
REMARK  214  A    between atoms: _541  and  _544
REMARK  215  A    between atoms: _544  and  _545
REMARK  216  A    between atoms: _547  and  _549
REMARK  217  A    between atoms: _549  and  _550
REMARK  218  A    between atoms: _549  and  _552
REMARK  219  A    between atoms: _552  and  _553
REMARK  220  A    between atoms: _559  and  _561
REMARK  221  A    between atoms: _561  and  _562
REMARK  222  A    between atoms: _561  and  _564
REMARK  223  A    between atoms: _564  and  _565
REMARK  224  A    between atoms: _565  and  _566
REMARK  225  A    between atoms: _569  and  _571
REMARK  226  A    between atoms: _571  and  _572
REMARK  227  A    between atoms: _571  and  _574
REMARK  228  A    between atoms: _574  and  _575
REMARK  229  A    between atoms: _575  and  _576
REMARK  230  A    between atoms: _576  and  _577
REMARK  231  A    between atoms: _577  and  _578
REMARK  232  A    between atoms: _582  and  _584
REMARK  233  A    between atoms: _584  and  _585
REMARK  234  A    between atoms: _584  and  _587
REMARK  235  A    between atoms: _587  and  _588
REMARK  236  A    between atoms: _590  and  _592
REMARK  237  A    between atoms: _592  and  _593
REMARK  238  A    between atoms: _592  and  _595
REMARK  239  A    between atoms: _595  and  _596
REMARK  240  A    between atoms: _596  and  _597
REMARK  241  A    between atoms: _597  and  _598
REMARK                            x       y       z     vdW  Elec       q    Type
REMARK                         _______ _______ _______ _____ _____    ______ ____
ROOT
ATOM      1  CA  ASN A   5      -4.188  25.251   8.866  0.00  0.00    +0.158 C 
ENDROOT
BRANCH   1   2
ATOM      2  C   ASN A   5      -4.697  25.478   7.438  0.00  0.00    +0.244 C 
ATOM      3  N   PRO A   6      -6.033  25.633   7.263  0.00  0.00    -0.272 N 
ATOM      4  CD  PRO A   6      -7.041  25.777   8.333  0.00  0.00    +0.094 C 
ATOM      5  CG  PRO A   6      -8.334  25.757   7.601  0.00  0.00    +0.024 C 
ATOM      6  CB  PRO A   6      -8.080  26.143   6.171  0.00  0.00    +0.031 C 
ATOM      7  CA  PRO A   6      -6.572  25.919   5.934  0.00  0.00    +0.152 C 
ATOM      8  O   ASN A   5      -3.894  25.541   6.492  0.00  0.00    -0.273 OA
BRANCH   7   9
ATOM      9  C   PRO A   6      -5.990  27.172   5.291  0.00  0.00    +0.241 C 
ATOM     10  N   ARG A   7      -5.552  28.150   6.082  0.00  0.00    -0.297 N 
ATOM     11  H   ARG A   7      -5.632  28.067   7.116  0.00  0.00    +0.150 HD
ATOM     12  O   PRO A   6      -5.943  27.252   4.063  0.00  0.00    -0.273 OA
BRANCH  10  13
ATOM     13  CA  ARG A   7      -4.961  29.334   5.482  0.00  0.00    +0.149 C 
BRANCH  13  14
ATOM     14  C   ARG A   7      -3.647  29.032   4.758  0.00  0.00    +0.241 C 
ATOM     15  N   LEU A   8      -3.158  27.796   4.887  0.00  0.00    -0.297 N 
ATOM     16  H   LEU A   8      -3.698  27.092   5.429  0.00  0.00    +0.150 HD
ATOM     17  O   ARG A   7      -3.107  29.890   4.068  0.00  0.00    -0.273 OA
BRANCH  15  18
ATOM     18  CA  LEU A   8      -1.877  27.406   4.282  0.00  0.00    +0.149 C 
BRANCH  18  19
ATOM     19  C   LEU A   8      -2.095  26.482   3.123  0.00  0.00    +0.241 C 
ATOM     20  N   PHE A   9      -3.286  25.891   3.001  0.00  0.00    -0.298 N 
ATOM     21  H   PHE A   9      -4.032  26.072   3.703  0.00  0.00    +0.150 HD
ATOM     22  O   LEU A   8      -1.162  26.277   2.356  0.00  0.00    -0.273 OA
BRANCH  20  23
ATOM     23  CA  PHE A   9      -3.540  24.986   1.876  0.00  0.00    +0.141 C 
BRANCH  23  24
ATOM     24  C   PHE A   9      -3.200  25.705   0.559  0.00  0.00    +0.227 C 
ATOM     25  O   PHE A   9      -3.467  26.906   0.404  0.00  0.00    -0.286 OA
ENDBRANCH  23  24
BRANCH  23  26
ATOM     26  CB  PHE A   9      -4.968  24.429   1.853  0.00  0.00    +0.054 C 
BRANCH  26  27
ATOM     27  CG  PHE A   9      -5.386  23.660   3.113  0.00  0.00    -0.020 A 
ATOM     28  CD2 PHE A   9      -4.470  23.277   4.091  0.00  0.00    -0.004 A 
ATOM     29  CE2 PHE A   9      -4.889  22.574   5.232  0.00  0.00    -0.000 A 
ATOM     30  CZ  PHE A   9      -6.232  22.285   5.419  0.00  0.00    -0.000 A 
ATOM     31  CE1 PHE A   9      -7.145  22.667   4.463  0.00  0.00    -0.000 A 
ATOM     32  CD1 PHE A   9      -6.711  23.334   3.307  0.00  0.00    -0.004 A 
ENDBRANCH  26  27
ENDBRANCH  23  26
ENDBRANCH  20  23
ENDBRANCH  18  19
BRANCH  18  33
ATOM     33  CB  LEU A   8      -0.944  26.695   5.289  0.00  0.00    +0.029 C 
BRANCH  33  34
ATOM     34  CG  LEU A   8      -0.435  27.568   6.438  0.00  0.00    +0.002 C 
ATOM     35  CD2 LEU A   8       0.405  26.752   7.443  0.00  0.00    +0.000 C 
ATOM     36  CD1 LEU A   8       0.295  28.841   5.952  0.00  0.00    +0.000 C 
ENDBRANCH  33  34
ENDBRANCH  18  33
ENDBRANCH  15  18
ENDBRANCH  13  14
BRANCH  13  37
ATOM     37  CB  ARG A   7      -4.821  30.482   6.491  0.00  0.00    +0.033 C 
BRANCH  37  38
ATOM     38  CG  ARG A   7      -6.196  31.090   6.823  0.00  0.00    +0.045 C 
BRANCH  38  39
ATOM     39  CD  ARG A   7      -6.235  31.845   8.142  0.00  0.00    +0.174 C 
BRANCH  39  40
ATOM     40  NE  ARG A   7      -5.857  31.041   9.303  0.00  0.00    -0.265 N 
ATOM     41  CZ  ARG A   7      -6.535  30.018   9.805  0.00  0.00    +0.342 C 
ATOM     42  NH2 ARG A   7      -6.076  29.421  10.903  0.00  0.00    -0.292 N 
ATOM     43 HH21 ARG A   7      -5.200  29.759  11.351  0.00  0.00    +0.255 HD
ATOM     44 HH22 ARG A   7      -6.593  28.617  11.313  0.00  0.00    +0.255 HD
ATOM     45  NH1 ARG A   7      -7.659  29.583   9.233  0.00  0.00    -0.292 N 
ATOM     46 HH11 ARG A   7      -8.174  28.779   9.644  0.00  0.00    +0.255 HD
ATOM     47 HH12 ARG A   7      -8.020  30.048   8.376  0.00  0.00    +0.255 HD
ATOM     48  HE  ARG A   7      -4.970  31.296   9.782  0.00  0.00    +0.259 HD
ENDBRANCH  39  40
ENDBRANCH  38  39
ENDBRANCH  37  38
ENDBRANCH  13  37
ENDBRANCH  10  13
ENDBRANCH   7   9
ENDBRANCH   1   2
BRANCH   1  51
ATOM     49  C   ILE A   4      -4.605  22.855   9.213  0.00  0.00    +0.241 C 
ATOM     50  O   ILE A   4      -5.830  22.966   9.110  0.00  0.00    -0.273 OA
ATOM     51  N   ASN A   5      -3.765  23.874   9.103  0.00  0.00    -0.297 N 
ATOM     52  H   ASN A   5      -2.747  23.682   9.190  0.00  0.00    +0.150 HD
BRANCH  49  53
ATOM     53  CA  ILE A   4      -3.994  21.492   9.501  0.00  0.00    +0.149 C 
BRANCH  53  55
ATOM     54  C   ASP A   3      -2.222  20.925   7.913  0.00  0.00    +0.241 C 
ATOM     55  N   ILE A   4      -2.599  21.420   9.091  0.00  0.00    -0.297 N 
ATOM     56  H   ILE A   4      -1.868  21.769   9.743  0.00  0.00    +0.150 HD
ATOM     57  O   ASP A   3      -2.984  20.378   7.123  0.00  0.00    -0.273 OA
BRANCH  54  58
ATOM     58  CA  ASP A   3      -0.761  21.068   7.568  0.00  0.00    +0.160 C 
BRANCH  58  61
ATOM     59  C   PHE A   2       0.805  19.699   6.334  0.00  0.00    +0.241 C 
ATOM     60  O   PHE A   2       1.708  19.901   7.164  0.00  0.00    -0.273 OA
ATOM     61  N   ASP A   3      -0.401  20.256   6.420  0.00  0.00    -0.297 N 
ATOM     62  H   ASP A   3      -1.092  20.108   5.657  0.00  0.00    +0.150 HD
BRANCH  59  63
ATOM     63  CA  PHE A   2       1.031  18.814   5.119  0.00  0.00    +0.153 C 
BRANCH  63  65
ATOM     64  C   ILE A   1       2.587  19.211   3.320  0.00  0.00    +0.238 C 
ATOM     65  N   PHE A   2       2.366  18.909   4.599  0.00  0.00    -0.297 N 
ATOM     66  H   PHE A   2       3.174  18.739   5.231  0.00  0.00    +0.150 HD
ATOM     67  O   ILE A   1       1.700  19.613   2.565  0.00  0.00    -0.274 OA
BRANCH  64  68
ATOM     68  CA  ILE A   1       4.017  19.094   2.832  0.00  0.00    +0.145 C 
BRANCH  68  69
ATOM     69  N   ILE A   1       3.990  18.471   1.523  0.00  0.00    -0.238 NA
ATOM     70  H   ILE A   1       3.327  18.834   0.808  0.00  0.00    +0.142 HD
ENDBRANCH  68  69
BRANCH  68  71
ATOM     71  CB  ILE A   1       4.643  20.470   2.765  0.00  0.00    +0.025 C 
ATOM     72  CG2 ILE A   1       4.854  21.097   4.181  0.00  0.00    +0.002 C 
BRANCH  71  73
ATOM     73  CG1 ILE A   1       5.933  20.407   1.979  0.00  0.00    +0.002 C 
ATOM     74  CD1 ILE A   1       6.469  21.836   1.637  0.00  0.00    +0.000 C 
ENDBRANCH  71  73
ENDBRANCH  68  71
ENDBRANCH  64  68
ENDBRANCH  63  65
BRANCH  63  75
ATOM     75  CB  PHE A   2       0.703  17.350   5.451  0.00  0.00    +0.055 C 
BRANCH  75  76
ATOM     76  CG  PHE A   2       0.777  16.467   4.267  0.00  0.00    -0.020 A 
ATOM     77  CD2 PHE A   2       2.001  15.962   3.848  0.00  0.00    -0.004 A 
ATOM     78  CE2 PHE A   2       2.096  15.184   2.705  0.00  0.00    -0.000 A 
ATOM     79  CZ  PHE A   2       0.973  14.885   1.990  0.00  0.00    -0.000 A 
ATOM     80  CE1 PHE A   2      -0.265  15.400   2.382  0.00  0.00    -0.000 A 
ATOM     81  CD1 PHE A   2      -0.358  16.193   3.516  0.00  0.00    -0.004 A 
ENDBRANCH  75  76
ENDBRANCH  63  75
ENDBRANCH  59  63
ENDBRANCH  58  61
BRANCH  58  82
ATOM     82  CB  ASP A   3      -0.411  22.520   7.329  0.00  0.00    +0.143 C 
BRANCH  82  83
ATOM     83  CG  ASP A   3      -0.116  23.259   8.623  0.00  0.00    +0.367 C 
ATOM     84  OD2 ASP A   3      -1.052  23.661   9.358  0.00  0.00    -0.246 OA
ATOM     85  OD1 ASP A   3       1.076  23.432   8.912  0.00  0.00    -0.246 OA
ENDBRANCH  82  83
ENDBRANCH  58  82
ENDBRANCH  54  58
ENDBRANCH  53  55
BRANCH  53  86
ATOM     86  CB  ILE A   4      -4.213  21.203  11.004  0.00  0.00    +0.027 C 
ATOM     87  CG2 ILE A   4      -4.093  19.759  11.287  0.00  0.00    +0.002 C 
BRANCH  86  88
ATOM     88  CG1 ILE A   4      -3.255  22.016  11.888  0.00  0.00    +0.002 C 
ATOM     89  CD1 ILE A   4      -3.804  22.232  13.270  0.00  0.00    +0.000 C 
ENDBRANCH  86  88
ENDBRANCH  53  86
ENDBRANCH  49  53
ENDBRANCH   1  51
BRANCH   1  90
ATOM     90  CB  ASN A   5      -3.016  26.216   9.154  0.00  0.00    +0.114 C 
BRANCH  90  91
ATOM     91  CG  ASN A   5      -3.443  27.691   9.155  0.00  0.00    +0.222 C 
ATOM     92  ND2 ASN A   5      -2.529  28.584   9.553  0.00  0.00    -0.329 N 
ATOM     93 HD21 ASN A   5      -1.585  28.265   9.850  0.00  0.00    +0.145 HD
ATOM     94 HD22 ASN A   5      -2.763  29.597   9.566  0.00  0.00    +0.145 HD
ATOM     95  OD1 ASN A   5      -4.581  28.018   8.792  0.00  0.00    -0.275 OA
ENDBRANCH  90  91
ENDBRANCH   1  90
TORSDOF 35
REMARK  Name = ../refined-set-2016/3wgg/3wgg_pocket.pdb
REMARK  241 active torsions:
REMARK  status: ('A' for Active; 'I' for Inactive)
REMARK    1  A    between atoms: _1  and  _3
REMARK    2  A    between atoms: _3  and  _4
REMARK    3  A    between atoms: _3  and  _6
REMARK    4  A    between atoms: _6  and  _7
REMARK    5  A    between atoms: _10  and  _12
REMARK    6  A    between atoms: _12  and  _13
REMARK    7  A    between atoms: _12  and  _15
REMARK    8  A    between atoms: _15  and  _16
REMARK    9  A    between atoms: _19  and  _21
REMARK   10  A    between atoms: _21  and  _22
REMARK   11  A    between atoms: _24  and  _26
REMARK   12  A    between atoms: _26  and  _27
REMARK   13  A    between atoms: _30  and  _32
REMARK   14  A    between atoms: _32  and  _33
REMARK   15  A    between atoms: _35  and  _37
REMARK   16  A    between atoms: _37  and  _38
REMARK   17  A    between atoms: _37  and  _40
REMARK   18  A    between atoms: _40  and  _41
REMARK   19  A    between atoms: _46  and  _48
REMARK   20  A    between atoms: _48  and  _49
REMARK   21  A    between atoms: _48  and  _51
REMARK   22  A    between atoms: _51  and  _52
REMARK   23  A    between atoms: _55  and  _57
REMARK   24  A    between atoms: _57  and  _58
REMARK   25  A    between atoms: _60  and  _62
REMARK   26  A    between atoms: _62  and  _63
REMARK   27  A    between atoms: _62  and  _65
REMARK   28  A    between atoms: _65  and  _66
REMARK   29  A    between atoms: _66  and  _67
REMARK   30  A    between atoms: _72  and  _74
REMARK   31  A    between atoms: _74  and  _75
REMARK   32  A    between atoms: _78  and  _80
REMARK   33  A    between atoms: _80  and  _81
REMARK   34  A    between atoms: _80  and  _83
REMARK   35  A    between atoms: _83  and  _84
REMARK   36  A    between atoms: _87  and  _89
REMARK   37  A    between atoms: _89  and  _90
REMARK   38  A    between atoms: _89  and  _92
REMARK   39  A    between atoms: _92  and  _93
REMARK   40  A    between atoms: _96  and  _98
REMARK   41  A    between atoms: _98  and  _99
REMARK   42  A    between atoms: _98  and  _101
REMARK   43  A    between atoms: _101  and  _102
REMARK   44  A    between atoms: _108  and  _110
REMARK   45  A    between atoms: _110  and  _111
REMARK   46  A    between atoms: _110  and  _113
REMARK   47  A    between atoms: _113  and  _114
REMARK   48  A    between atoms: _117  and  _119
REMARK   49  A    between atoms: _119  and  _120
REMARK   50  A    between atoms: _119  and  _122
REMARK   51  A    between atoms: _122  and  _123
REMARK   52  A    between atoms: _126  and  _128
REMARK   53  A    between atoms: _128  and  _129
REMARK   54  A    between atoms: _128  and  _131
REMARK   55  A    between atoms: _131  and  _132
REMARK   56  A    between atoms: _138  and  _139
REMARK   57  A    between atoms: _144  and  _146
REMARK   58  A    between atoms: _146  and  _147
REMARK   59  A    between atoms: _146  and  _149
REMARK   60  A    between atoms: _149  and  _150
REMARK   61  A    between atoms: _150  and  _151
REMARK   62  A    between atoms: _151  and  _152
REMARK   63  A    between atoms: _161  and  _163
REMARK   64  A    between atoms: _163  and  _164
REMARK   65  A    between atoms: _163  and  _166
REMARK   66  A    between atoms: _166  and  _167
REMARK   67  A    between atoms: _170  and  _172
REMARK   68  A    between atoms: _172  and  _173
REMARK   69  A    between atoms: _172  and  _175
REMARK   70  A    between atoms: _175  and  _176
REMARK   71  A    between atoms: _182  and  _184
REMARK   72  A    between atoms: _184  and  _185
REMARK   73  A    between atoms: _184  and  _187
REMARK   74  A    between atoms: _190  and  _192
REMARK   75  A    between atoms: _192  and  _193
REMARK   76  A    between atoms: _192  and  _195
REMARK   77  A    between atoms: _195  and  _196
REMARK   78  A    between atoms: _196  and  _197
REMARK   79  A    between atoms: _199  and  _201
REMARK   80  A    between atoms: _201  and  _202
REMARK   81  A    between atoms: _201  and  _204
REMARK   82  A    between atoms: _204  and  _205
REMARK   83  A    between atoms: _208  and  _210
REMARK   84  A    between atoms: _210  and  _211
REMARK   85  A    between atoms: _210  and  _213
REMARK   86  A    between atoms: _216  and  _218
REMARK   87  A    between atoms: _218  and  _219
REMARK   88  A    between atoms: _218  and  _221
REMARK   89  A    between atoms: _221  and  _222
REMARK   90  A    between atoms: _222  and  _223
REMARK   91  A    between atoms: _226  and  _228
REMARK   92  A    between atoms: _228  and  _229
REMARK   93  A    between atoms: _228  and  _231
REMARK   94  A    between atoms: _234  and  _236
REMARK   95  A    between atoms: _236  and  _237
REMARK   96  A    between atoms: _236  and  _239
REMARK   97  A    between atoms: _239  and  _240
REMARK   98  A    between atoms: _243  and  _245
REMARK   99  A    between atoms: _245  and  _246
REMARK  100  A    between atoms: _245  and  _248
REMARK  101  A    between atoms: _250  and  _252
REMARK  102  A    between atoms: _252  and  _253
REMARK  103  A    between atoms: _252  and  _255
REMARK  104  A    between atoms: _255  and  _256
REMARK  105  A    between atoms: _260  and  _261
REMARK  106  A    between atoms: _266  and  _268
REMARK  107  A    between atoms: _268  and  _269
REMARK  108  A    between atoms: _268  and  _271
REMARK  109  A    between atoms: _271  and  _272
REMARK  110  A    between atoms: _272  and  _273
REMARK  111  A    between atoms: _273  and  _274
REMARK  112  A    between atoms: _274  and  _275
REMARK  113  A    between atoms: _279  and  _281
REMARK  114  A    between atoms: _281  and  _282
REMARK  115  A    between atoms: _281  and  _284
REMARK  116  A    between atoms: _284  and  _285
REMARK  117  A    between atoms: _288  and  _290
REMARK  118  A    between atoms: _290  and  _291
REMARK  119  A    between atoms: _290  and  _293
REMARK  120  A    between atoms: _293  and  _294
REMARK  121  A    between atoms: _299  and  _301
REMARK  122  A    between atoms: _301  and  _302
REMARK  123  A    between atoms: _305  and  _307
REMARK  124  A    between atoms: _307  and  _308
REMARK  125  A    between atoms: _307  and  _310
REMARK  126  A    between atoms: _310  and  _311
REMARK  127  A    between atoms: _316  and  _317
REMARK  128  A    between atoms: _319  and  _321
REMARK  129  A    between atoms: _321  and  _322
REMARK  130  A    between atoms: _321  and  _324
REMARK  131  A    between atoms: _324  and  _325
REMARK  132  A    between atoms: _328  and  _330
REMARK  133  A    between atoms: _330  and  _331
REMARK  134  A    between atoms: _334  and  _336
REMARK  135  A    between atoms: _336  and  _337
REMARK  136  A    between atoms: _336  and  _339
REMARK  137  A    between atoms: _339  and  _340
REMARK  138  A    between atoms: _340  and  _341
REMARK  139  A    between atoms: _341  and  _342
REMARK  140  A    between atoms: _351  and  _353
REMARK  141  A    between atoms: _353  and  _354
REMARK  142  A    between atoms: _353  and  _356
REMARK  143  A    between atoms: _356  and  _357
REMARK  144  A    between atoms: _362  and  _364
REMARK  145  A    between atoms: _364  and  _365
REMARK  146  A    between atoms: _364  and  _367
REMARK  147  A    between atoms: _367  and  _368
REMARK  148  A    between atoms: _374  and  _376
REMARK  149  A    between atoms: _376  and  _377
REMARK  150  A    between atoms: _376  and  _379
REMARK  151  A    between atoms: _379  and  _380
REMARK  152  A    between atoms: _384  and  _385
REMARK  153  A    between atoms: _390  and  _392
REMARK  154  A    between atoms: _392  and  _393
REMARK  155  A    between atoms: _392  and  _395
REMARK  156  A    between atoms: _395  and  _396
REMARK  157  A    between atoms: _399  and  _401
REMARK  158  A    between atoms: _401  and  _402
REMARK  159  A    between atoms: _401  and  _404
REMARK  160  A    between atoms: _407  and  _409
REMARK  161  A    between atoms: _409  and  _410
REMARK  162  A    between atoms: _409  and  _412
REMARK  163  A    between atoms: _412  and  _413
REMARK  164  A    between atoms: _418  and  _420
REMARK  165  A    between atoms: _420  and  _421
REMARK  166  A    between atoms: _420  and  _423
REMARK  167  A    between atoms: _423  and  _424
REMARK  168  A    between atoms: _427  and  _429
REMARK  169  A    between atoms: _429  and  _430
REMARK  170  A    between atoms: _429  and  _432
REMARK  171  A    between atoms: _432  and  _433
REMARK  172  A    between atoms: _435  and  _437
REMARK  173  A    between atoms: _437  and  _438
REMARK  174  A    between atoms: _437  and  _440
REMARK  175  A    between atoms: _440  and  _441
REMARK  176  A    between atoms: _447  and  _449
REMARK  177  A    between atoms: _449  and  _450
REMARK  178  A    between atoms: _449  and  _452
REMARK  179  A    between atoms: _452  and  _453
REMARK  180  A    between atoms: _458  and  _460
REMARK  181  A    between atoms: _460  and  _461
REMARK  182  A    between atoms: _460  and  _463
REMARK  183  A    between atoms: _463  and  _464
REMARK  184  A    between atoms: _467  and  _469
REMARK  185  A    between atoms: _469  and  _470
REMARK  186  A    between atoms: _472  and  _474
REMARK  187  A    between atoms: _474  and  _475
REMARK  188  A    between atoms: _474  and  _477
REMARK  189  A    between atoms: _477  and  _478
REMARK  190  A    between atoms: _478  and  _479
REMARK  191  A    between atoms: _484  and  _486
REMARK  192  A    between atoms: _486  and  _487
REMARK  193  A    between atoms: _490  and  _492
REMARK  194  A    between atoms: _492  and  _493
REMARK  195  A    between atoms: _492  and  _495
REMARK  196  A    between atoms: _495  and  _496
REMARK  197  A    between atoms: _499  and  _501
REMARK  198  A    between atoms: _501  and  _502
REMARK  199  A    between atoms: _505  and  _507
REMARK  200  A    between atoms: _507  and  _508
REMARK  201  A    between atoms: _507  and  _510
REMARK  202  A    between atoms: _510  and  _511
REMARK  203  A    between atoms: _516  and  _518
REMARK  204  A    between atoms: _518  and  _519
REMARK  205  A    between atoms: _518  and  _521
REMARK  206  A    between atoms: _521  and  _522
REMARK  207  A    between atoms: _527  and  _528
REMARK  208  A    between atoms: _530  and  _532
REMARK  209  A    between atoms: _532  and  _533
REMARK  210  A    between atoms: _532  and  _535
REMARK  211  A    between atoms: _535  and  _536
REMARK  212  A    between atoms: _539  and  _541
REMARK  213  A    between atoms: _541  and  _542
REMARK  214  A    between atoms: _541  and  _544
REMARK  215  A    between atoms: _544  and  _545
REMARK  216  A    between atoms: _547  and  _549
REMARK  217  A    between atoms: _549  and  _550
REMARK  218  A    between atoms: _549  and  _552
REMARK  219  A    between atoms: _552  and  _553
REMARK  220  A    between atoms: _559  and  _561
REMARK  221  A    between atoms: _561  and  _562
REMARK  222  A    between atoms: _561  and  _564
REMARK  223  A    between atoms: _564  and  _565
REMARK  224  A    between atoms: _565  and  _566
REMARK  225  A    between atoms: _569  and  _571
REMARK  226  A    between atoms: _571  and  _572
REMARK  227  A    between atoms: _571  and  _574
REMARK  228  A    between atoms: _574  and  _575
REMARK  229  A    between atoms: _575  and  _576
REMARK  230  A    between atoms: _576  and  _577
REMARK  231  A    between atoms: _577  and  _578
REMARK  232  A    between atoms: _582  and  _584
REMARK  233  A    between atoms: _584  and  _585
REMARK  234  A    between atoms: _584  and  _587
REMARK  235  A    between atoms: _587  and  _588
REMARK  236  A    between atoms: _590  and  _592
REMARK  237  A    between atoms: _592  and  _593
REMARK  238  A    between atoms: _592  and  _595
REMARK  239  A    between atoms: _595  and  _596
REMARK  240  A    between atoms: _596  and  _597
REMARK  241  A    between atoms: _597  and  _598
REMARK                            x       y       z     vdW  Elec       q    Type
REMARK                         _______ _______ _______ _____ _____    ______ ____
ROOT
ATOM      1  CA  ASP A   3      -4.500  19.164   4.218  0.00  0.00    +0.160 C 
ENDROOT
BRANCH   1   4
ATOM      2  C   MET A   2      -2.517  19.761   2.930  0.00  0.00    +0.241 C 
ATOM      3  O   MET A   2      -1.785  19.800   3.922  0.00  0.00    -0.273 OA
ATOM      4  N   ASP A   3      -3.821  19.518   2.989  0.00  0.00    -0.297 N 
ATOM      5  H   ASP A   3      -4.379  19.585   2.114  0.00  0.00    +0.150 HD
BRANCH   2   6
ATOM      6  CA  MET A   2      -1.966  19.994   1.548  0.00  0.00    +0.149 C 
BRANCH   6   8
ATOM      7  C   VAL A   1      -0.488  21.882   1.099  0.00  0.00    +0.238 C 
ATOM      8  N   MET A   2      -0.692  20.691   1.660  0.00  0.00    -0.297 N 
ATOM      9  H   MET A   2       0.081  20.246   2.194  0.00  0.00    +0.150 HD
ATOM     10  O   VAL A   1      -1.361  22.523   0.503  0.00  0.00    -0.274 OA
BRANCH   7  11
ATOM     11  CA  VAL A   1       0.920  22.440   1.213  0.00  0.00    +0.145 C 
BRANCH  11  12
ATOM     12  CB  VAL A   1       0.939  23.661   2.154  0.00  0.00    +0.025 C 
ATOM     13  CG2 VAL A   1       0.345  23.328   3.522  0.00  0.00    +0.002 C 
ATOM     14  CG1 VAL A   1       2.371  24.194   2.299  0.00  0.00    +0.002 C 
ENDBRANCH  11  12
BRANCH  11  15
ATOM     15  N   VAL A   1       1.388  22.803  -0.117  0.00  0.00    -0.238 NA
ATOM     16  H   VAL A   1       1.439  23.809  -0.376  0.00  0.00    +0.142 HD
ENDBRANCH  11  15
ENDBRANCH   7  11
ENDBRANCH   6   8
BRANCH   6  17
ATOM     17  CB  MET A   2      -1.815  18.632   0.812  0.00  0.00    +0.041 C 
BRANCH  17  18
ATOM     18  CG  MET A   2      -1.403  18.792  -0.611  0.00  0.00    +0.060 C 
BRANCH  18  19
ATOM     19  SD  MET A   2      -0.674  17.315  -1.320  0.00  0.00    -0.139 S 
ATOM     20  CE  MET A   2       1.080  17.577  -0.877  0.00  0.00    +0.069 C 
ENDBRANCH  18  19
ENDBRANCH  17  18
ENDBRANCH   6  17
ENDBRANCH   2   6
ENDBRANCH   1   4
BRANCH   1  21
ATOM     21  C   ASP A   3      -3.980  17.820   4.696  0.00  0.00    +0.241 C 
ATOM     22  N   VAL A   4      -3.500  17.770   5.936  0.00  0.00    -0.297 N 
ATOM     23  H   VAL A   4      -3.577  18.606   6.550  0.00  0.00    +0.150 HD
ATOM     24  O   ASP A   3      -4.006  16.835   3.948  0.00  0.00    -0.273 OA
BRANCH  22  25
ATOM     25  CA  VAL A   4      -2.869  16.563   6.443  0.00  0.00    +0.149 C 
BRANCH  25  26
ATOM     26  C   VAL A   4      -3.920  15.450   6.526  0.00  0.00    +0.241 C 
ATOM     27  O   VAL A   4      -3.617  14.272   6.793  0.00  0.00    -0.273 OA
ATOM     28  N   GLU A   5      -5.175  15.840   6.324  0.00  0.00    -0.298 N 
ATOM     29  H   GLU A   5      -5.389  16.849   6.188  0.00  0.00    +0.150 HD
BRANCH  28  30
ATOM     30  CA  GLU A   5      -6.258  14.852   6.292  0.00  0.00    +0.137 C 
BRANCH  30  31
ATOM     31  C   GLU A   5      -5.965  13.786   5.234  0.00  0.00    +0.227 C 
ATOM     32  O   GLU A   5      -6.192  12.595   5.456  0.00  0.00    -0.286 OA
ENDBRANCH  30  31
BRANCH  30  33
ATOM     33  CB  GLU A   5      -7.600  15.549   6.014  0.00  0.00    +0.039 C 
BRANCH  33  34
ATOM     34  CG  GLU A   5      -8.780  14.648   6.154  0.00  0.00    +0.116 C 
BRANCH  34  35
ATOM     35  CD  GLU A   5      -8.732  13.935   7.495  0.00  0.00    +0.365 C 
ATOM     36  OE2 GLU A   5      -8.417  14.590   8.530  0.00  0.00    -0.246 OA
ATOM     37  OE1 GLU A   5      -8.984  12.707   7.499  0.00  0.00    -0.246 OA
ENDBRANCH  34  35
ENDBRANCH  33  34
ENDBRANCH  30  33
ENDBRANCH  28  30
ENDBRANCH  25  26
BRANCH  25  38
ATOM     38  CB  VAL A   4      -2.203  16.818   7.835  0.00  0.00    +0.027 C 
ATOM     39  CG2 VAL A   4      -3.245  17.299   8.875  0.00  0.00    +0.002 C 
ATOM     40  CG1 VAL A   4      -1.450  15.596   8.323  0.00  0.00    +0.002 C 
ENDBRANCH  25  38
ENDBRANCH  22  25
ENDBRANCH   1  21
BRANCH   1  41
ATOM     41  CB  ASP A   3      -5.992  19.085   3.900  0.00  0.00    +0.143 C 
BRANCH  41  42
ATOM     42  CG  ASP A   3      -6.855  18.891   5.126  0.00  0.00    +0.367 C 
ATOM     43  OD2 ASP A   3      -6.405  18.334   6.136  0.00  0.00    -0.246 OA
ATOM     44  OD1 ASP A   3      -8.036  19.240   5.042  0.00  0.00    -0.246 OA
ENDBRANCH  41  42
ENDBRANCH   1  41
TORSDOF 20
REMARK  Name = ../refined-set-2016/3wgg/3wgg_pocket.pdb
REMARK  241 active torsions:
REMARK  status: ('A' for Active; 'I' for Inactive)
REMARK    1  A    between atoms: _1  and  _3
REMARK    2  A    between atoms: _3  and  _4
REMARK    3  A    between atoms: _3  and  _6
REMARK    4  A    between atoms: _6  and  _7
REMARK    5  A    between atoms: _10  and  _12
REMARK    6  A    between atoms: _12  and  _13
REMARK    7  A    between atoms: _12  and  _15
REMARK    8  A    between atoms: _15  and  _16
REMARK    9  A    between atoms: _19  and  _21
REMARK   10  A    between atoms: _21  and  _22
REMARK   11  A    between atoms: _24  and  _26
REMARK   12  A    between atoms: _26  and  _27
REMARK   13  A    between atoms: _30  and  _32
REMARK   14  A    between atoms: _32  and  _33
REMARK   15  A    between atoms: _35  and  _37
REMARK   16  A    between atoms: _37  and  _38
REMARK   17  A    between atoms: _37  and  _40
REMARK   18  A    between atoms: _40  and  _41
REMARK   19  A    between atoms: _46  and  _48
REMARK   20  A    between atoms: _48  and  _49
REMARK   21  A    between atoms: _48  and  _51
REMARK   22  A    between atoms: _51  and  _52
REMARK   23  A    between atoms: _55  and  _57
REMARK   24  A    between atoms: _57  and  _58
REMARK   25  A    between atoms: _60  and  _62
REMARK   26  A    between atoms: _62  and  _63
REMARK   27  A    between atoms: _62  and  _65
REMARK   28  A    between atoms: _65  and  _66
REMARK   29  A    between atoms: _66  and  _67
REMARK   30  A    between atoms: _72  and  _74
REMARK   31  A    between atoms: _74  and  _75
REMARK   32  A    between atoms: _78  and  _80
REMARK   33  A    between atoms: _80  and  _81
REMARK   34  A    between atoms: _80  and  _83
REMARK   35  A    between atoms: _83  and  _84
REMARK   36  A    between atoms: _87  and  _89
REMARK   37  A    between atoms: _89  and  _90
REMARK   38  A    between atoms: _89  and  _92
REMARK   39  A    between atoms: _92  and  _93
REMARK   40  A    between atoms: _96  and  _98
REMARK   41  A    between atoms: _98  and  _99
REMARK   42  A    between atoms: _98  and  _101
REMARK   43  A    between atoms: _101  and  _102
REMARK   44  A    between atoms: _108  and  _110
REMARK   45  A    between atoms: _110  and  _111
REMARK   46  A    between atoms: _110  and  _113
REMARK   47  A    between atoms: _113  and  _114
REMARK   48  A    between atoms: _117  and  _119
REMARK   49  A    between atoms: _119  and  _120
REMARK   50  A    between atoms: _119  and  _122
REMARK   51  A    between atoms: _122  and  _123
REMARK   52  A    between atoms: _126  and  _128
REMARK   53  A    between atoms: _128  and  _129
REMARK   54  A    between atoms: _128  and  _131
REMARK   55  A    between atoms: _131  and  _132
REMARK   56  A    between atoms: _138  and  _139
REMARK   57  A    between atoms: _144  and  _146
REMARK   58  A    between atoms: _146  and  _147
REMARK   59  A    between atoms: _146  and  _149
REMARK   60  A    between atoms: _149  and  _150
REMARK   61  A    between atoms: _150  and  _151
REMARK   62  A    between atoms: _151  and  _152
REMARK   63  A    between atoms: _161  and  _163
REMARK   64  A    between atoms: _163  and  _164
REMARK   65  A    between atoms: _163  and  _166
REMARK   66  A    between atoms: _166  and  _167
REMARK   67  A    between atoms: _170  and  _172
REMARK   68  A    between atoms: _172  and  _173
REMARK   69  A    between atoms: _172  and  _175
REMARK   70  A    between atoms: _175  and  _176
REMARK   71  A    between atoms: _182  and  _184
REMARK   72  A    between atoms: _184  and  _185
REMARK   73  A    between atoms: _184  and  _187
REMARK   74  A    between atoms: _190  and  _192
REMARK   75  A    between atoms: _192  and  _193
REMARK   76  A    between atoms: _192  and  _195
REMARK   77  A    between atoms: _195  and  _196
REMARK   78  A    between atoms: _196  and  _197
REMARK   79  A    between atoms: _199  and  _201
REMARK   80  A    between atoms: _201  and  _202
REMARK   81  A    between atoms: _201  and  _204
REMARK   82  A    between atoms: _204  and  _205
REMARK   83  A    between atoms: _208  and  _210
REMARK   84  A    between atoms: _210  and  _211
REMARK   85  A    between atoms: _210  and  _213
REMARK   86  A    between atoms: _216  and  _218
REMARK   87  A    between atoms: _218  and  _219
REMARK   88  A    between atoms: _218  and  _221
REMARK   89  A    between atoms: _221  and  _222
REMARK   90  A    between atoms: _222  and  _223
REMARK   91  A    between atoms: _226  and  _228
REMARK   92  A    between atoms: _228  and  _229
REMARK   93  A    between atoms: _228  and  _231
REMARK   94  A    between atoms: _234  and  _236
REMARK   95  A    between atoms: _236  and  _237
REMARK   96  A    between atoms: _236  and  _239
REMARK   97  A    between atoms: _239  and  _240
REMARK   98  A    between atoms: _243  and  _245
REMARK   99  A    between atoms: _245  and  _246
REMARK  100  A    between atoms: _245  and  _248
REMARK  101  A    between atoms: _250  and  _252
REMARK  102  A    between atoms: _252  and  _253
REMARK  103  A    between atoms: _252  and  _255
REMARK  104  A    between atoms: _255  and  _256
REMARK  105  A    between atoms: _260  and  _261
REMARK  106  A    between atoms: _266  and  _268
REMARK  107  A    between atoms: _268  and  _269
REMARK  108  A    between atoms: _268  and  _271
REMARK  109  A    between atoms: _271  and  _272
REMARK  110  A    between atoms: _272  and  _273
REMARK  111  A    between atoms: _273  and  _274
REMARK  112  A    between atoms: _274  and  _275
REMARK  113  A    between atoms: _279  and  _281
REMARK  114  A    between atoms: _281  and  _282
REMARK  115  A    between atoms: _281  and  _284
REMARK  116  A    between atoms: _284  and  _285
REMARK  117  A    between atoms: _288  and  _290
REMARK  118  A    between atoms: _290  and  _291
REMARK  119  A    between atoms: _290  and  _293
REMARK  120  A    between atoms: _293  and  _294
REMARK  121  A    between atoms: _299  and  _301
REMARK  122  A    between atoms: _301  and  _302
REMARK  123  A    between atoms: _305  and  _307
REMARK  124  A    between atoms: _307  and  _308
REMARK  125  A    between atoms: _307  and  _310
REMARK  126  A    between atoms: _310  and  _311
REMARK  127  A    between atoms: _316  and  _317
REMARK  128  A    between atoms: _319  and  _321
REMARK  129  A    between atoms: _321  and  _322
REMARK  130  A    between atoms: _321  and  _324
REMARK  131  A    between atoms: _324  and  _325
REMARK  132  A    between atoms: _328  and  _330
REMARK  133  A    between atoms: _330  and  _331
REMARK  134  A    between atoms: _334  and  _336
REMARK  135  A    between atoms: _336  and  _337
REMARK  136  A    between atoms: _336  and  _339
REMARK  137  A    between atoms: _339  and  _340
REMARK  138  A    between atoms: _340  and  _341
REMARK  139  A    between atoms: _341  and  _342
REMARK  140  A    between atoms: _351  and  _353
REMARK  141  A    between atoms: _353  and  _354
REMARK  142  A    between atoms: _353  and  _356
REMARK  143  A    between atoms: _356  and  _357
REMARK  144  A    between atoms: _362  and  _364
REMARK  145  A    between atoms: _364  and  _365
REMARK  146  A    between atoms: _364  and  _367
REMARK  147  A    between atoms: _367  and  _368
REMARK  148  A    between atoms: _374  and  _376
REMARK  149  A    between atoms: _376  and  _377
REMARK  150  A    between atoms: _376  and  _379
REMARK  151  A    between atoms: _379  and  _380
REMARK  152  A    between atoms: _384  and  _385
REMARK  153  A    between atoms: _390  and  _392
REMARK  154  A    between atoms: _392  and  _393
REMARK  155  A    between atoms: _392  and  _395
REMARK  156  A    between atoms: _395  and  _396
REMARK  157  A    between atoms: _399  and  _401
REMARK  158  A    between atoms: _401  and  _402
REMARK  159  A    between atoms: _401  and  _404
REMARK  160  A    between atoms: _407  and  _409
REMARK  161  A    between atoms: _409  and  _410
REMARK  162  A    between atoms: _409  and  _412
REMARK  163  A    between atoms: _412  and  _413
REMARK  164  A    between atoms: _418  and  _420
REMARK  165  A    between atoms: _420  and  _421
REMARK  166  A    between atoms: _420  and  _423
REMARK  167  A    between atoms: _423  and  _424
REMARK  168  A    between atoms: _427  and  _429
REMARK  169  A    between atoms: _429  and  _430
REMARK  170  A    between atoms: _429  and  _432
REMARK  171  A    between atoms: _432  and  _433
REMARK  172  A    between atoms: _435  and  _437
REMARK  173  A    between atoms: _437  and  _438
REMARK  174  A    between atoms: _437  and  _440
REMARK  175  A    between atoms: _440  and  _441
REMARK  176  A    between atoms: _447  and  _449
REMARK  177  A    between atoms: _449  and  _450
REMARK  178  A    between atoms: _449  and  _452
REMARK  179  A    between atoms: _452  and  _453
REMARK  180  A    between atoms: _458  and  _460
REMARK  181  A    between atoms: _460  and  _461
REMARK  182  A    between atoms: _460  and  _463
REMARK  183  A    between atoms: _463  and  _464
REMARK  184  A    between atoms: _467  and  _469
REMARK  185  A    between atoms: _469  and  _470
REMARK  186  A    between atoms: _472  and  _474
REMARK  187  A    between atoms: _474  and  _475
REMARK  188  A    between atoms: _474  and  _477
REMARK  189  A    between atoms: _477  and  _478
REMARK  190  A    between atoms: _478  and  _479
REMARK  191  A    between atoms: _484  and  _486
REMARK  192  A    between atoms: _486  and  _487
REMARK  193  A    between atoms: _490  and  _492
REMARK  194  A    between atoms: _492  and  _493
REMARK  195  A    between atoms: _492  and  _495
REMARK  196  A    between atoms: _495  and  _496
REMARK  197  A    between atoms: _499  and  _501
REMARK  198  A    between atoms: _501  and  _502
REMARK  199  A    between atoms: _505  and  _507
REMARK  200  A    between atoms: _507  and  _508
REMARK  201  A    between atoms: _507  and  _510
REMARK  202  A    between atoms: _510  and  _511
REMARK  203  A    between atoms: _516  and  _518
REMARK  204  A    between atoms: _518  and  _519
REMARK  205  A    between atoms: _518  and  _521
REMARK  206  A    between atoms: _521  and  _522
REMARK  207  A    between atoms: _527  and  _528
REMARK  208  A    between atoms: _530  and  _532
REMARK  209  A    between atoms: _532  and  _533
REMARK  210  A    between atoms: _532  and  _535
REMARK  211  A    between atoms: _535  and  _536
REMARK  212  A    between atoms: _539  and  _541
REMARK  213  A    between atoms: _541  and  _542
REMARK  214  A    between atoms: _541  and  _544
REMARK  215  A    between atoms: _544  and  _545
REMARK  216  A    between atoms: _547  and  _549
REMARK  217  A    between atoms: _549  and  _550
REMARK  218  A    between atoms: _549  and  _552
REMARK  219  A    between atoms: _552  and  _553
REMARK  220  A    between atoms: _559  and  _561
REMARK  221  A    between atoms: _561  and  _562
REMARK  222  A    between atoms: _561  and  _564
REMARK  223  A    between atoms: _564  and  _565
REMARK  224  A    between atoms: _565  and  _566
REMARK  225  A    between atoms: _569  and  _571
REMARK  226  A    between atoms: _571  and  _572
REMARK  227  A    between atoms: _571  and  _574
REMARK  228  A    between atoms: _574  and  _575
REMARK  229  A    between atoms: _575  and  _576
REMARK  230  A    between atoms: _576  and  _577
REMARK  231  A    between atoms: _577  and  _578
REMARK  232  A    between atoms: _582  and  _584
REMARK  233  A    between atoms: _584  and  _585
REMARK  234  A    between atoms: _584  and  _587
REMARK  235  A    between atoms: _587  and  _588
REMARK  236  A    between atoms: _590  and  _592
REMARK  237  A    between atoms: _592  and  _593
REMARK  238  A    between atoms: _592  and  _595
REMARK  239  A    between atoms: _595  and  _596
REMARK  240  A    between atoms: _596  and  _597
REMARK  241  A    between atoms: _597  and  _598
REMARK                            x       y       z     vdW  Elec       q    Type
REMARK                         _______ _______ _______ _____ _____    ______ ____
ROOT
ATOM      1  CA  VAL A   1      -1.680  12.270   4.268  0.00  0.00    +0.133 C 
ENDROOT
BRANCH   1   2
ATOM      2  CB  VAL A   1      -0.908  12.747   5.510  0.00  0.00    +0.023 C 
ATOM      3  CG2 VAL A   1      -1.269  11.907   6.731  0.00  0.00    +0.002 C 
ATOM      4  CG1 VAL A   1       0.597  12.681   5.230  0.00  0.00    +0.002 C 
ENDBRANCH   1   2
BRANCH   1   5
ATOM      5  N   VAL A   1      -3.084  12.710   4.255  0.00  0.00    -0.239 NA
ATOM      6  H   VAL A   1      -3.519  13.123   5.105  0.00  0.00    +0.142 HD
ENDBRANCH   1   5
BRANCH   1   7
ATOM      7  C   VAL A   1      -1.577  10.741   4.137  0.00  0.00    +0.224 C 
ATOM      8  O   VAL A   1      -0.671  10.241   3.495  0.00  0.00    -0.287 OA
ENDBRANCH   1   7
TORSDOF 3
REMARK  Name = ../refined-set-2016/3wgg/3wgg_pocket.pdb
REMARK  241 active torsions:
REMARK  status: ('A' for Active; 'I' for Inactive)
REMARK    1  A    between atoms: _1  and  _3
REMARK    2  A    between atoms: _3  and  _4
REMARK    3  A    between atoms: _3  and  _6
REMARK    4  A    between atoms: _6  and  _7
REMARK    5  A    between atoms: _10  and  _12
REMARK    6  A    between atoms: _12  and  _13
REMARK    7  A    between atoms: _12  and  _15
REMARK    8  A    between atoms: _15  and  _16
REMARK    9  A    between atoms: _19  and  _21
REMARK   10  A    between atoms: _21  and  _22
REMARK   11  A    between atoms: _24  and  _26
REMARK   12  A    between atoms: _26  and  _27
REMARK   13  A    between atoms: _30  and  _32
REMARK   14  A    between atoms: _32  and  _33
REMARK   15  A    between atoms: _35  and  _37
REMARK   16  A    between atoms: _37  and  _38
REMARK   17  A    between atoms: _37  and  _40
REMARK   18  A    between atoms: _40  and  _41
REMARK   19  A    between atoms: _46  and  _48
REMARK   20  A    between atoms: _48  and  _49
REMARK   21  A    between atoms: _48  and  _51
REMARK   22  A    between atoms: _51  and  _52
REMARK   23  A    between atoms: _55  and  _57
REMARK   24  A    between atoms: _57  and  _58
REMARK   25  A    between atoms: _60  and  _62
REMARK   26  A    between atoms: _62  and  _63
REMARK   27  A    between atoms: _62  and  _65
REMARK   28  A    between atoms: _65  and  _66
REMARK   29  A    between atoms: _66  and  _67
REMARK   30  A    between atoms: _72  and  _74
REMARK   31  A    between atoms: _74  and  _75
REMARK   32  A    between atoms: _78  and  _80
REMARK   33  A    between atoms: _80  and  _81
REMARK   34  A    between atoms: _80  and  _83
REMARK   35  A    between atoms: _83  and  _84
REMARK   36  A    between atoms: _87  and  _89
REMARK   37  A    between atoms: _89  and  _90
REMARK   38  A    between atoms: _89  and  _92
REMARK   39  A    between atoms: _92  and  _93
REMARK   40  A    between atoms: _96  and  _98
REMARK   41  A    between atoms: _98  and  _99
REMARK   42  A    between atoms: _98  and  _101
REMARK   43  A    between atoms: _101  and  _102
REMARK   44  A    between atoms: _108  and  _110
REMARK   45  A    between atoms: _110  and  _111
REMARK   46  A    between atoms: _110  and  _113
REMARK   47  A    between atoms: _113  and  _114
REMARK   48  A    between atoms: _117  and  _119
REMARK   49  A    between atoms: _119  and  _120
REMARK   50  A    between atoms: _119  and  _122
REMARK   51  A    between atoms: _122  and  _123
REMARK   52  A    between atoms: _126  and  _128
REMARK   53  A    between atoms: _128  and  _129
REMARK   54  A    between atoms: _128  and  _131
REMARK   55  A    between atoms: _131  and  _132
REMARK   56  A    between atoms: _138  and  _139
REMARK   57  A    between atoms: _144  and  _146
REMARK   58  A    between atoms: _146  and  _147
REMARK   59  A    between atoms: _146  and  _149
REMARK   60  A    between atoms: _149  and  _150
REMARK   61  A    between atoms: _150  and  _151
REMARK   62  A    between atoms: _151  and  _152
REMARK   63  A    between atoms: _161  and  _163
REMARK   64  A    between atoms: _163  and  _164
REMARK   65  A    between atoms: _163  and  _166
REMARK   66  A    between atoms: _166  and  _167
REMARK   67  A    between atoms: _170  and  _172
REMARK   68  A    between atoms: _172  and  _173
REMARK   69  A    between atoms: _172  and  _175
REMARK   70  A    between atoms: _175  and  _176
REMARK   71  A    between atoms: _182  and  _184
REMARK   72  A    between atoms: _184  and  _185
REMARK   73  A    between atoms: _184  and  _187
REMARK   74  A    between atoms: _190  and  _192
REMARK   75  A    between atoms: _192  and  _193
REMARK   76  A    between atoms: _192  and  _195
REMARK   77  A    between atoms: _195  and  _196
REMARK   78  A    between atoms: _196  and  _197
REMARK   79  A    between atoms: _199  and  _201
REMARK   80  A    between atoms: _201  and  _202
REMARK   81  A    between atoms: _201  and  _204
REMARK   82  A    between atoms: _204  and  _205
REMARK   83  A    between atoms: _208  and  _210
REMARK   84  A    between atoms: _210  and  _211
REMARK   85  A    between atoms: _210  and  _213
REMARK   86  A    between atoms: _216  and  _218
REMARK   87  A    between atoms: _218  and  _219
REMARK   88  A    between atoms: _218  and  _221
REMARK   89  A    between atoms: _221  and  _222
REMARK   90  A    between atoms: _222  and  _223
REMARK   91  A    between atoms: _226  and  _228
REMARK   92  A    between atoms: _228  and  _229
REMARK   93  A    between atoms: _228  and  _231
REMARK   94  A    between atoms: _234  and  _236
REMARK   95  A    between atoms: _236  and  _237
REMARK   96  A    between atoms: _236  and  _239
REMARK   97  A    between atoms: _239  and  _240
REMARK   98  A    between atoms: _243  and  _245
REMARK   99  A    between atoms: _245  and  _246
REMARK  100  A    between atoms: _245  and  _248
REMARK  101  A    between atoms: _250  and  _252
REMARK  102  A    between atoms: _252  and  _253
REMARK  103  A    between atoms: _252  and  _255
REMARK  104  A    between atoms: _255  and  _256
REMARK  105  A    between atoms: _260  and  _261
REMARK  106  A    between atoms: _266  and  _268
REMARK  107  A    between atoms: _268  and  _269
REMARK  108  A    between atoms: _268  and  _271
REMARK  109  A    between atoms: _271  and  _272
REMARK  110  A    between atoms: _272  and  _273
REMARK  111  A    between atoms: _273  and  _274
REMARK  112  A    between atoms: _274  and  _275
REMARK  113  A    between atoms: _279  and  _281
REMARK  114  A    between atoms: _281  and  _282
REMARK  115  A    between atoms: _281  and  _284
REMARK  116  A    between atoms: _284  and  _285
REMARK  117  A    between atoms: _288  and  _290
REMARK  118  A    between atoms: _290  and  _291
REMARK  119  A    between atoms: _290  and  _293
REMARK  120  A    between atoms: _293  and  _294
REMARK  121  A    between atoms: _299  and  _301
REMARK  122  A    between atoms: _301  and  _302
REMARK  123  A    between atoms: _305  and  _307
REMARK  124  A    between atoms: _307  and  _308
REMARK  125  A    between atoms: _307  and  _310
REMARK  126  A    between atoms: _310  and  _311
REMARK  127  A    between atoms: _316  and  _317
REMARK  128  A    between atoms: _319  and  _321
REMARK  129  A    between atoms: _321  and  _322
REMARK  130  A    between atoms: _321  and  _324
REMARK  131  A    between atoms: _324  and  _325
REMARK  132  A    between atoms: _328  and  _330
REMARK  133  A    between atoms: _330  and  _331
REMARK  134  A    between atoms: _334  and  _336
REMARK  135  A    between atoms: _336  and  _337
REMARK  136  A    between atoms: _336  and  _339
REMARK  137  A    between atoms: _339  and  _340
REMARK  138  A    between atoms: _340  and  _341
REMARK  139  A    between atoms: _341  and  _342
REMARK  140  A    between atoms: _351  and  _353
REMARK  141  A    between atoms: _353  and  _354
REMARK  142  A    between atoms: _353  and  _356
REMARK  143  A    between atoms: _356  and  _357
REMARK  144  A    between atoms: _362  and  _364
REMARK  145  A    between atoms: _364  and  _365
REMARK  146  A    between atoms: _364  and  _367
REMARK  147  A    between atoms: _367  and  _368
REMARK  148  A    between atoms: _374  and  _376
REMARK  149  A    between atoms: _376  and  _377
REMARK  150  A    between atoms: _376  and  _379
REMARK  151  A    between atoms: _379  and  _380
REMARK  152  A    between atoms: _384  and  _385
REMARK  153  A    between atoms: _390  and  _392
REMARK  154  A    between atoms: _392  and  _393
REMARK  155  A    between atoms: _392  and  _395
REMARK  156  A    between atoms: _395  and  _396
REMARK  157  A    between atoms: _399  and  _401
REMARK  158  A    between atoms: _401  and  _402
REMARK  159  A    between atoms: _401  and  _404
REMARK  160  A    between atoms: _407  and  _409
REMARK  161  A    between atoms: _409  and  _410
REMARK  162  A    between atoms: _409  and  _412
REMARK  163  A    between atoms: _412  and  _413
REMARK  164  A    between atoms: _418  and  _420
REMARK  165  A    between atoms: _420  and  _421
REMARK  166  A    between atoms: _420  and  _423
REMARK  167  A    between atoms: _423  and  _424
REMARK  168  A    between atoms: _427  and  _429
REMARK  169  A    between atoms: _429  and  _430
REMARK  170  A    between atoms: _429  and  _432
REMARK  171  A    between atoms: _432  and  _433
REMARK  172  A    between atoms: _435  and  _437
REMARK  173  A    between atoms: _437  and  _438
REMARK  174  A    between atoms: _437  and  _440
REMARK  175  A    between atoms: _440  and  _441
REMARK  176  A    between atoms: _447  and  _449
REMARK  177  A    between atoms: _449  and  _450
REMARK  178  A    between atoms: _449  and  _452
REMARK  179  A    between atoms: _452  and  _453
REMARK  180  A    between atoms: _458  and  _460
REMARK  181  A    between atoms: _460  and  _461
REMARK  182  A    between atoms: _460  and  _463
REMARK  183  A    between atoms: _463  and  _464
REMARK  184  A    between atoms: _467  and  _469
REMARK  185  A    between atoms: _469  and  _470
REMARK  186  A    between atoms: _472  and  _474
REMARK  187  A    between atoms: _474  and  _475
REMARK  188  A    between atoms: _474  and  _477
REMARK  189  A    between atoms: _477  and  _478
REMARK  190  A    between atoms: _478  and  _479
REMARK  191  A    between atoms: _484  and  _486
REMARK  192  A    between atoms: _486  and  _487
REMARK  193  A    between atoms: _490  and  _492
REMARK  194  A    between atoms: _492  and  _493
REMARK  195  A    between atoms: _492  and  _495
REMARK  196  A    between atoms: _495  and  _496
REMARK  197  A    between atoms: _499  and  _501
REMARK  198  A    between atoms: _501  and  _502
REMARK  199  A    between atoms: _505  and  _507
REMARK  200  A    between atoms: _507  and  _508
REMARK  201  A    between atoms: _507  and  _510
REMARK  202  A    between atoms: _510  and  _511
REMARK  203  A    between atoms: _516  and  _518
REMARK  204  A    between atoms: _518  and  _519
REMARK  205  A    between atoms: _518  and  _521
REMARK  206  A    between atoms: _521  and  _522
REMARK  207  A    between atoms: _527  and  _528
REMARK  208  A    between atoms: _530  and  _532
REMARK  209  A    between atoms: _532  and  _533
REMARK  210  A    between atoms: _532  and  _535
REMARK  211  A    between atoms: _535  and  _536
REMARK  212  A    between atoms: _539  and  _541
REMARK  213  A    between atoms: _541  and  _542
REMARK  214  A    between atoms: _541  and  _544
REMARK  215  A    between atoms: _544  and  _545
REMARK  216  A    between atoms: _547  and  _549
REMARK  217  A    between atoms: _549  and  _550
REMARK  218  A    between atoms: _549  and  _552
REMARK  219  A    between atoms: _552  and  _553
REMARK  220  A    between atoms: _559  and  _561
REMARK  221  A    between atoms: _561  and  _562
REMARK  222  A    between atoms: _561  and  _564
REMARK  223  A    between atoms: _564  and  _565
REMARK  224  A    between atoms: _565  and  _566
REMARK  225  A    between atoms: _569  and  _571
REMARK  226  A    between atoms: _571  and  _572
REMARK  227  A    between atoms: _571  and  _574
REMARK  228  A    between atoms: _574  and  _575
REMARK  229  A    between atoms: _575  and  _576
REMARK  230  A    between atoms: _576  and  _577
REMARK  231  A    between atoms: _577  and  _578
REMARK  232  A    between atoms: _582  and  _584
REMARK  233  A    between atoms: _584  and  _585
REMARK  234  A    between atoms: _584  and  _587
REMARK  235  A    between atoms: _587  and  _588
REMARK  236  A    between atoms: _590  and  _592
REMARK  237  A    between atoms: _592  and  _593
REMARK  238  A    between atoms: _592  and  _595
REMARK  239  A    between atoms: _595  and  _596
REMARK  240  A    between atoms: _596  and  _597
REMARK  241  A    between atoms: _597  and  _598
REMARK                            x       y       z     vdW  Elec       q    Type
REMARK                         _______ _______ _______ _____ _____    ______ ____
ROOT
ATOM      1  CA  LYS A   5       4.193  18.397  20.633  0.00  0.00    +0.149 C 
ENDROOT
BRANCH   1   2
ATOM      2  C   LYS A   5       2.859  17.684  20.826  0.00  0.00    +0.241 C 
ATOM      3  N   ASP A   6       1.842  18.456  21.170  0.00  0.00    -0.297 N 
ATOM      4  H   ASP A   6       1.889  19.474  20.963  0.00  0.00    +0.150 HD
ATOM      5  O   LYS A   5       2.772  16.467  20.745  0.00  0.00    -0.273 OA
BRANCH   3   6
ATOM      6  CA  ASP A   6       0.656  17.923  21.831  0.00  0.00    +0.160 C 
BRANCH   6   7
ATOM      7  C   ASP A   6      -0.055  16.801  21.067  0.00  0.00    +0.241 C 
ATOM      8  O   ASP A   6      -0.847  16.041  21.643  0.00  0.00    -0.273 OA
ATOM      9  N   ASN A   7       0.229  16.683  19.777  0.00  0.00    -0.297 N 
ATOM     10  H   ASN A   7       0.982  17.266  19.361  0.00  0.00    +0.150 HD
BRANCH   9  11
ATOM     11  CA  ASN A   7      -0.507  15.740  18.933  0.00  0.00    +0.158 C 
BRANCH  11  12
ATOM     12  C   ASN A   7       0.435  15.141  17.897  0.00  0.00    +0.241 C 
ATOM     13  N   ALA A   8       1.725  15.204  18.201  0.00  0.00    -0.298 N 
ATOM     14  H   ALA A   8       2.030  15.828  18.975  0.00  0.00    +0.150 HD
ATOM     15  O   ASN A   7       0.009  14.652  16.845  0.00  0.00    -0.273 OA
BRANCH  13  16
ATOM     16  CA  ALA A   8       2.714  14.437  17.495  0.00  0.00    +0.137 C 
ATOM     17  CB  ALA A   8       4.094  14.702  18.066  0.00  0.00    +0.030 C 
BRANCH  16  18
ATOM     18  C   ALA A   8       2.397  12.930  17.489  0.00  0.00    +0.227 C 
ATOM     19  O   ALA A   8       2.459  12.308  16.433  0.00  0.00    -0.286 OA
ENDBRANCH  16  18
ENDBRANCH  13  16
ENDBRANCH  11  12
BRANCH  11  20
ATOM     20  CB  ASN A   7      -1.660  16.468  18.238  0.00  0.00    +0.114 C 
BRANCH  20  21
ATOM     21  CG  ASN A   7      -1.164  17.589  17.299  0.00  0.00    +0.222 C 
ATOM     22  ND2 ASN A   7      -2.027  18.574  17.027  0.00  0.00    -0.329 N 
ATOM     23 HD21 ASN A   7      -2.987  18.550  17.427  0.00  0.00    +0.145 HD
ATOM     24 HD22 ASN A   7      -1.738  19.364  16.416  0.00  0.00    +0.145 HD
ATOM     25  OD1 ASN A   7      -0.011  17.570  16.849  0.00  0.00    -0.275 OA
ENDBRANCH  20  21
ENDBRANCH  11  20
ENDBRANCH   9  11
ENDBRANCH   6   7
BRANCH   6  26
ATOM     26  CB  ASP A   6      -0.308  19.083  22.059  0.00  0.00    +0.143 C 
BRANCH  26  27
ATOM     27  CG  ASP A   6      -0.473  19.906  20.813  0.00  0.00    +0.367 C 
ATOM     28  OD2 ASP A   6      -0.512  21.156  20.893  0.00  0.00    -0.246 OA
ATOM     29  OD1 ASP A   6      -0.518  19.277  19.730  0.00  0.00    -0.246 OA
ENDBRANCH  26  27
ENDBRANCH   6  26
ENDBRANCH   3   6
ENDBRANCH   1   2
BRANCH   1  31
ATOM     30  C   PRO A   4       3.519  19.758  18.699  0.00  0.00    +0.241 C 
ATOM     31  N   LYS A   5       4.072  19.660  19.903  0.00  0.00    -0.297 N 
ATOM     32  H   LYS A   5       4.438  20.525  20.350  0.00  0.00    +0.150 HD
ATOM     33  O   PRO A   4       3.007  18.807  18.114  0.00  0.00    -0.273 OA
BRANCH  30  36
ATOM     34  C   ILE A   3       4.571  20.321  15.898  0.00  0.00    +0.244 C 
ATOM     35  N   PRO A   4       3.574  20.960  16.563  0.00  0.00    -0.272 N 
ATOM     36  CA  PRO A   4       3.658  21.117  18.016  0.00  0.00    +0.152 C 
ATOM     37  CB  PRO A   4       2.474  22.071  18.361  0.00  0.00    +0.031 C 
ATOM     38  CG  PRO A   4       2.039  22.702  17.017  0.00  0.00    +0.024 C 
ATOM     39  CD  PRO A   4       2.408  21.652  15.973  0.00  0.00    +0.094 C 
ATOM     40  O   ILE A   3       5.568  19.904  16.444  0.00  0.00    -0.273 OA
BRANCH  34  41
ATOM     41  CA  ILE A   3       4.399  20.105  14.401  0.00  0.00    +0.149 C 
BRANCH  41  43
ATOM     42  C   CYS A   2       6.357  20.426  12.969  0.00  0.00    +0.242 C 
ATOM     43  N   ILE A   3       5.644  19.649  13.788  0.00  0.00    -0.297 N 
ATOM     44  H   ILE A   3       5.986  18.689  13.996  0.00  0.00    +0.150 HD
ATOM     45  O   CYS A   2       6.037  21.610  12.693  0.00  0.00    -0.273 OA
BRANCH  42  46
ATOM     46  CA  CYS A   2       7.609  19.743  12.401  0.00  0.00    +0.160 C 
BRANCH  46  49
ATOM     47  C   LEU A   1       8.055  17.317  12.422  0.00  0.00    +0.238 C 
ATOM     48  O   LEU A   1       9.047  17.391  13.186  0.00  0.00    -0.274 OA
ATOM     49  N   CYS A   2       7.300  18.349  12.052  0.00  0.00    -0.297 N 
ATOM     50  H   CYS A   2       6.448  18.159  11.487  0.00  0.00    +0.150 HD
BRANCH  47  51
ATOM     51  CA  LEU A   1       7.603  15.982  11.904  0.00  0.00    +0.145 C 
BRANCH  51  52
ATOM     52  N   LEU A   1       8.586  15.347  11.044  0.00  0.00    -0.238 NA
ATOM     53  H   LEU A   1       9.394  14.853  11.473  0.00  0.00    +0.142 HD
ENDBRANCH  51  52
BRANCH  51  54
ATOM     54  CB  LEU A   1       7.321  15.114  13.120  0.00  0.00    +0.026 C 
BRANCH  54  55
ATOM     55  CG  LEU A   1       6.670  13.793  12.814  0.00  0.00    +0.002 C 
ATOM     56  CD2 LEU A   1       6.535  13.143  14.162  0.00  0.00    +0.000 C 
ATOM     57  CD1 LEU A   1       5.324  14.111  12.175  0.00  0.00    +0.000 C 
ENDBRANCH  54  55
ENDBRANCH  51  54
ENDBRANCH  47  51
ENDBRANCH  46  49
BRANCH  46  58
ATOM     58  CB  CYS A   2       8.142  20.481  11.177  0.00  0.00    +0.098 C 
ATOM     59  SG  CYS A   2       9.628  19.735  10.445  0.00  0.00    -0.080 S 
ENDBRANCH  46  58
ENDBRANCH  42  46
ENDBRANCH  41  43
BRANCH  41  60
ATOM     60  CB  ILE A   3       3.268  19.097  14.183  0.00  0.00    +0.027 C 
ATOM     61  CG2 ILE A   3       2.897  19.048  12.700  0.00  0.00    +0.002 C 
BRANCH  60  62
ATOM     62  CG1 ILE A   3       3.654  17.717  14.746  0.00  0.00    +0.002 C 
ATOM     63  CD1 ILE A   3       2.515  16.793  14.914  0.00  0.00    +0.000 C 
ENDBRANCH  60  62
ENDBRANCH  41  60
ENDBRANCH  34  41
ENDBRANCH  30  36
ENDBRANCH   1  31
BRANCH   1  64
ATOM     64  CB  LYS A   5       4.665  18.668  22.059  0.00  0.00    +0.029 C 
BRANCH  64  65
ATOM     65  CG  LYS A   5       6.104  18.958  22.274  0.00  0.00    +0.000 C 
BRANCH  65  66
ATOM     66  CD  LYS A   5       6.322  19.263  23.765  0.00  0.00    -0.024 C 
BRANCH  66  67
ATOM     67  CE  LYS A   5       5.734  20.621  24.137  0.00  0.00    -0.086 C 
BRANCH  67  68
ATOM     68  NZ  LYS A   5       4.780  20.508  25.293  0.00  0.00    +0.380 N 
ATOM     69  HZ1 LYS A   5       5.283  20.128  26.120  0.00  0.00    -0.089 HD
ATOM     70  HZ2 LYS A   5       4.399  21.449  25.520  0.00  0.00    -0.089 HD
ATOM     71  HZ3 LYS A   5       4.000  19.869  25.036  0.00  0.00    -0.089 HD
ENDBRANCH  67  68
ENDBRANCH  66  67
ENDBRANCH  65  66
ENDBRANCH  64  65
ENDBRANCH   1  64
TORSDOF 29
REMARK  Name = ../refined-set-2016/3wgg/3wgg_pocket.pdb
REMARK  241 active torsions:
REMARK  status: ('A' for Active; 'I' for Inactive)
REMARK    1  A    between atoms: _1  and  _3
REMARK    2  A    between atoms: _3  and  _4
REMARK    3  A    between atoms: _3  and  _6
REMARK    4  A    between atoms: _6  and  _7
REMARK    5  A    between atoms: _10  and  _12
REMARK    6  A    between atoms: _12  and  _13
REMARK    7  A    between atoms: _12  and  _15
REMARK    8  A    between atoms: _15  and  _16
REMARK    9  A    between atoms: _19  and  _21
REMARK   10  A    between atoms: _21  and  _22
REMARK   11  A    between atoms: _24  and  _26
REMARK   12  A    between atoms: _26  and  _27
REMARK   13  A    between atoms: _30  and  _32
REMARK   14  A    between atoms: _32  and  _33
REMARK   15  A    between atoms: _35  and  _37
REMARK   16  A    between atoms: _37  and  _38
REMARK   17  A    between atoms: _37  and  _40
REMARK   18  A    between atoms: _40  and  _41
REMARK   19  A    between atoms: _46  and  _48
REMARK   20  A    between atoms: _48  and  _49
REMARK   21  A    between atoms: _48  and  _51
REMARK   22  A    between atoms: _51  and  _52
REMARK   23  A    between atoms: _55  and  _57
REMARK   24  A    between atoms: _57  and  _58
REMARK   25  A    between atoms: _60  and  _62
REMARK   26  A    between atoms: _62  and  _63
REMARK   27  A    between atoms: _62  and  _65
REMARK   28  A    between atoms: _65  and  _66
REMARK   29  A    between atoms: _66  and  _67
REMARK   30  A    between atoms: _72  and  _74
REMARK   31  A    between atoms: _74  and  _75
REMARK   32  A    between atoms: _78  and  _80
REMARK   33  A    between atoms: _80  and  _81
REMARK   34  A    between atoms: _80  and  _83
REMARK   35  A    between atoms: _83  and  _84
REMARK   36  A    between atoms: _87  and  _89
REMARK   37  A    between atoms: _89  and  _90
REMARK   38  A    between atoms: _89  and  _92
REMARK   39  A    between atoms: _92  and  _93
REMARK   40  A    between atoms: _96  and  _98
REMARK   41  A    between atoms: _98  and  _99
REMARK   42  A    between atoms: _98  and  _101
REMARK   43  A    between atoms: _101  and  _102
REMARK   44  A    between atoms: _108  and  _110
REMARK   45  A    between atoms: _110  and  _111
REMARK   46  A    between atoms: _110  and  _113
REMARK   47  A    between atoms: _113  and  _114
REMARK   48  A    between atoms: _117  and  _119
REMARK   49  A    between atoms: _119  and  _120
REMARK   50  A    between atoms: _119  and  _122
REMARK   51  A    between atoms: _122  and  _123
REMARK   52  A    between atoms: _126  and  _128
REMARK   53  A    between atoms: _128  and  _129
REMARK   54  A    between atoms: _128  and  _131
REMARK   55  A    between atoms: _131  and  _132
REMARK   56  A    between atoms: _138  and  _139
REMARK   57  A    between atoms: _144  and  _146
REMARK   58  A    between atoms: _146  and  _147
REMARK   59  A    between atoms: _146  and  _149
REMARK   60  A    between atoms: _149  and  _150
REMARK   61  A    between atoms: _150  and  _151
REMARK   62  A    between atoms: _151  and  _152
REMARK   63  A    between atoms: _161  and  _163
REMARK   64  A    between atoms: _163  and  _164
REMARK   65  A    between atoms: _163  and  _166
REMARK   66  A    between atoms: _166  and  _167
REMARK   67  A    between atoms: _170  and  _172
REMARK   68  A    between atoms: _172  and  _173
REMARK   69  A    between atoms: _172  and  _175
REMARK   70  A    between atoms: _175  and  _176
REMARK   71  A    between atoms: _182  and  _184
REMARK   72  A    between atoms: _184  and  _185
REMARK   73  A    between atoms: _184  and  _187
REMARK   74  A    between atoms: _190  and  _192
REMARK   75  A    between atoms: _192  and  _193
REMARK   76  A    between atoms: _192  and  _195
REMARK   77  A    between atoms: _195  and  _196
REMARK   78  A    between atoms: _196  and  _197
REMARK   79  A    between atoms: _199  and  _201
REMARK   80  A    between atoms: _201  and  _202
REMARK   81  A    between atoms: _201  and  _204
REMARK   82  A    between atoms: _204  and  _205
REMARK   83  A    between atoms: _208  and  _210
REMARK   84  A    between atoms: _210  and  _211
REMARK   85  A    between atoms: _210  and  _213
REMARK   86  A    between atoms: _216  and  _218
REMARK   87  A    between atoms: _218  and  _219
REMARK   88  A    between atoms: _218  and  _221
REMARK   89  A    between atoms: _221  and  _222
REMARK   90  A    between atoms: _222  and  _223
REMARK   91  A    between atoms: _226  and  _228
REMARK   92  A    between atoms: _228  and  _229
REMARK   93  A    between atoms: _228  and  _231
REMARK   94  A    between atoms: _234  and  _236
REMARK   95  A    between atoms: _236  and  _237
REMARK   96  A    between atoms: _236  and  _239
REMARK   97  A    between atoms: _239  and  _240
REMARK   98  A    between atoms: _243  and  _245
REMARK   99  A    between atoms: _245  and  _246
REMARK  100  A    between atoms: _245  and  _248
REMARK  101  A    between atoms: _250  and  _252
REMARK  102  A    between atoms: _252  and  _253
REMARK  103  A    between atoms: _252  and  _255
REMARK  104  A    between atoms: _255  and  _256
REMARK  105  A    between atoms: _260  and  _261
REMARK  106  A    between atoms: _266  and  _268
REMARK  107  A    between atoms: _268  and  _269
REMARK  108  A    between atoms: _268  and  _271
REMARK  109  A    between atoms: _271  and  _272
REMARK  110  A    between atoms: _272  and  _273
REMARK  111  A    between atoms: _273  and  _274
REMARK  112  A    between atoms: _274  and  _275
REMARK  113  A    between atoms: _279  and  _281
REMARK  114  A    between atoms: _281  and  _282
REMARK  115  A    between atoms: _281  and  _284
REMARK  116  A    between atoms: _284  and  _285
REMARK  117  A    between atoms: _288  and  _290
REMARK  118  A    between atoms: _290  and  _291
REMARK  119  A    between atoms: _290  and  _293
REMARK  120  A    between atoms: _293  and  _294
REMARK  121  A    between atoms: _299  and  _301
REMARK  122  A    between atoms: _301  and  _302
REMARK  123  A    between atoms: _305  and  _307
REMARK  124  A    between atoms: _307  and  _308
REMARK  125  A    between atoms: _307  and  _310
REMARK  126  A    between atoms: _310  and  _311
REMARK  127  A    between atoms: _316  and  _317
REMARK  128  A    between atoms: _319  and  _321
REMARK  129  A    between atoms: _321  and  _322
REMARK  130  A    between atoms: _321  and  _324
REMARK  131  A    between atoms: _324  and  _325
REMARK  132  A    between atoms: _328  and  _330
REMARK  133  A    between atoms: _330  and  _331
REMARK  134  A    between atoms: _334  and  _336
REMARK  135  A    between atoms: _336  and  _337
REMARK  136  A    between atoms: _336  and  _339
REMARK  137  A    between atoms: _339  and  _340
REMARK  138  A    between atoms: _340  and  _341
REMARK  139  A    between atoms: _341  and  _342
REMARK  140  A    between atoms: _351  and  _353
REMARK  141  A    between atoms: _353  and  _354
REMARK  142  A    between atoms: _353  and  _356
REMARK  143  A    between atoms: _356  and  _357
REMARK  144  A    between atoms: _362  and  _364
REMARK  145  A    between atoms: _364  and  _365
REMARK  146  A    between atoms: _364  and  _367
REMARK  147  A    between atoms: _367  and  _368
REMARK  148  A    between atoms: _374  and  _376
REMARK  149  A    between atoms: _376  and  _377
REMARK  150  A    between atoms: _376  and  _379
REMARK  151  A    between atoms: _379  and  _380
REMARK  152  A    between atoms: _384  and  _385
REMARK  153  A    between atoms: _390  and  _392
REMARK  154  A    between atoms: _392  and  _393
REMARK  155  A    between atoms: _392  and  _395
REMARK  156  A    between atoms: _395  and  _396
REMARK  157  A    between atoms: _399  and  _401
REMARK  158  A    between atoms: _401  and  _402
REMARK  159  A    between atoms: _401  and  _404
REMARK  160  A    between atoms: _407  and  _409
REMARK  161  A    between atoms: _409  and  _410
REMARK  162  A    between atoms: _409  and  _412
REMARK  163  A    between atoms: _412  and  _413
REMARK  164  A    between atoms: _418  and  _420
REMARK  165  A    between atoms: _420  and  _421
REMARK  166  A    between atoms: _420  and  _423
REMARK  167  A    between atoms: _423  and  _424
REMARK  168  A    between atoms: _427  and  _429
REMARK  169  A    between atoms: _429  and  _430
REMARK  170  A    between atoms: _429  and  _432
REMARK  171  A    between atoms: _432  and  _433
REMARK  172  A    between atoms: _435  and  _437
REMARK  173  A    between atoms: _437  and  _438
REMARK  174  A    between atoms: _437  and  _440
REMARK  175  A    between atoms: _440  and  _441
REMARK  176  A    between atoms: _447  and  _449
REMARK  177  A    between atoms: _449  and  _450
REMARK  178  A    between atoms: _449  and  _452
REMARK  179  A    between atoms: _452  and  _453
REMARK  180  A    between atoms: _458  and  _460
REMARK  181  A    between atoms: _460  and  _461
REMARK  182  A    between atoms: _460  and  _463
REMARK  183  A    between atoms: _463  and  _464
REMARK  184  A    between atoms: _467  and  _469
REMARK  185  A    between atoms: _469  and  _470
REMARK  186  A    between atoms: _472  and  _474
REMARK  187  A    between atoms: _474  and  _475
REMARK  188  A    between atoms: _474  and  _477
REMARK  189  A    between atoms: _477  and  _478
REMARK  190  A    between atoms: _478  and  _479
REMARK  191  A    between atoms: _484  and  _486
REMARK  192  A    between atoms: _486  and  _487
REMARK  193  A    between atoms: _490  and  _492
REMARK  194  A    between atoms: _492  and  _493
REMARK  195  A    between atoms: _492  and  _495
REMARK  196  A    between atoms: _495  and  _496
REMARK  197  A    between atoms: _499  and  _501
REMARK  198  A    between atoms: _501  and  _502
REMARK  199  A    between atoms: _505  and  _507
REMARK  200  A    between atoms: _507  and  _508
REMARK  201  A    between atoms: _507  and  _510
REMARK  202  A    between atoms: _510  and  _511
REMARK  203  A    between atoms: _516  and  _518
REMARK  204  A    between atoms: _518  and  _519
REMARK  205  A    between atoms: _518  and  _521
REMARK  206  A    between atoms: _521  and  _522
REMARK  207  A    between atoms: _527  and  _528
REMARK  208  A    between atoms: _530  and  _532
REMARK  209  A    between atoms: _532  and  _533
REMARK  210  A    between atoms: _532  and  _535
REMARK  211  A    between atoms: _535  and  _536
REMARK  212  A    between atoms: _539  and  _541
REMARK  213  A    between atoms: _541  and  _542
REMARK  214  A    between atoms: _541  and  _544
REMARK  215  A    between atoms: _544  and  _545
REMARK  216  A    between atoms: _547  and  _549
REMARK  217  A    between atoms: _549  and  _550
REMARK  218  A    between atoms: _549  and  _552
REMARK  219  A    between atoms: _552  and  _553
REMARK  220  A    between atoms: _559  and  _561
REMARK  221  A    between atoms: _561  and  _562
REMARK  222  A    between atoms: _561  and  _564
REMARK  223  A    between atoms: _564  and  _565
REMARK  224  A    between atoms: _565  and  _566
REMARK  225  A    between atoms: _569  and  _571
REMARK  226  A    between atoms: _571  and  _572
REMARK  227  A    between atoms: _571  and  _574
REMARK  228  A    between atoms: _574  and  _575
REMARK  229  A    between atoms: _575  and  _576
REMARK  230  A    between atoms: _576  and  _577
REMARK  231  A    between atoms: _577  and  _578
REMARK  232  A    between atoms: _582  and  _584
REMARK  233  A    between atoms: _584  and  _585
REMARK  234  A    between atoms: _584  and  _587
REMARK  235  A    between atoms: _587  and  _588
REMARK  236  A    between atoms: _590  and  _592
REMARK  237  A    between atoms: _592  and  _593
REMARK  238  A    between atoms: _592  and  _595
REMARK  239  A    between atoms: _595  and  _596
REMARK  240  A    between atoms: _596  and  _597
REMARK  241  A    between atoms: _597  and  _598
REMARK                            x       y       z     vdW  Elec       q    Type
REMARK                         _______ _______ _______ _____ _____    ______ ____
ROOT
ATOM      1  C   TYR A   1      -0.997  10.790  15.539  0.00  0.00    +0.239 C 
ATOM      2  N   THR A   2      -0.278  11.843  15.164  0.00  0.00    -0.295 N 
ATOM      3  H   THR A   2      -0.038  12.570  15.868  0.00  0.00    +0.150 HD
ATOM      4  O   TYR A   1      -1.265   9.869  14.781  0.00  0.00    -0.274 OA
ENDROOT
BRANCH   1   5
ATOM      5  CA  TYR A   1      -1.444  10.781  17.000  0.00  0.00    +0.149 C 
BRANCH   5   6
ATOM      6  N   TYR A   1      -0.311  11.090  17.855  0.00  0.00    -0.238 NA
ATOM      7  H   TYR A   1      -0.399  11.857  18.552  0.00  0.00    +0.142 HD
ENDBRANCH   5   6
BRANCH   5   8
ATOM      8  CB  TYR A   1      -2.548  11.811  17.237  0.00  0.00    +0.053 C 
BRANCH   8   9
ATOM      9  CG  TYR A   1      -3.742  11.653  16.331  0.00  0.00    -0.020 A 
ATOM     10  CD2 TYR A   1      -4.708  10.678  16.594  0.00  0.00    -0.001 A 
ATOM     11  CE2 TYR A   1      -5.822  10.517  15.774  0.00  0.00    +0.036 A 
ATOM     12  CZ  TYR A   1      -5.993  11.344  14.679  0.00  0.00    +0.134 A 
ATOM     13  CE1 TYR A   1      -5.050  12.332  14.389  0.00  0.00    +0.036 A 
ATOM     14  CD1 TYR A   1      -3.927  12.484  15.219  0.00  0.00    -0.001 A 
BRANCH  12  15
ATOM     15  OH  TYR A   1      -7.111  11.162  13.884  0.00  0.00    -0.506 OA
ATOM     16  HH  TYR A   1      -7.656  10.420  14.248  0.00  0.00    +0.292 HD
ENDBRANCH  12  15
ENDBRANCH   8   9
ENDBRANCH   5   8
ENDBRANCH   1   5
BRANCH   2  17
ATOM     17  CA  THR A   2       0.182  12.004  13.790  0.00  0.00    +0.176 C 
BRANCH  17  18
ATOM     18  C   THR A   2       1.208  10.928  13.429  0.00  0.00    +0.243 C 
ATOM     19  N   ALA A   3       2.134  10.651  14.339  0.00  0.00    -0.298 N 
ATOM     20  H   ALA A   3       2.179  11.193  15.226  0.00  0.00    +0.150 HD
ATOM     21  O   THR A   2       1.175  10.349  12.337  0.00  0.00    -0.273 OA
BRANCH  19  22
ATOM     22  CA  ALA A   3       3.073   9.594  14.084  0.00  0.00    +0.137 C 
ATOM     23  CB  ALA A   3       4.018   9.428  15.265  0.00  0.00    +0.030 C 
BRANCH  22  24
ATOM     24  C   ALA A   3       2.348   8.278  13.793  0.00  0.00    +0.227 C 
ATOM     25  O   ALA A   3       2.738   7.536  12.886  0.00  0.00    -0.286 OA
ENDBRANCH  22  24
ENDBRANCH  19  22
ENDBRANCH  17  18
BRANCH  17  26
ATOM     26  CB  THR A   2       0.712  13.450  13.583  0.00  0.00    +0.137 C 
ATOM     27  CG2 THR A   2       1.626  13.539  12.392  0.00  0.00    +0.034 C 
BRANCH  26  28
ATOM     28  OG1 THR A   2      -0.404  14.314  13.385  0.00  0.00    -0.382 OA
ATOM     29  HG1 THR A   2      -0.083  15.241  13.251  0.00  0.00    +0.210 HD
ENDBRANCH  26  28
ENDBRANCH  17  26
ENDBRANCH   2  17
TORSDOF 11
REMARK  Name = ../refined-set-2016/3wgg/3wgg_pocket.pdb
REMARK  241 active torsions:
REMARK  status: ('A' for Active; 'I' for Inactive)
REMARK    1  A    between atoms: _1  and  _3
REMARK    2  A    between atoms: _3  and  _4
REMARK    3  A    between atoms: _3  and  _6
REMARK    4  A    between atoms: _6  and  _7
REMARK    5  A    between atoms: _10  and  _12
REMARK    6  A    between atoms: _12  and  _13
REMARK    7  A    between atoms: _12  and  _15
REMARK    8  A    between atoms: _15  and  _16
REMARK    9  A    between atoms: _19  and  _21
REMARK   10  A    between atoms: _21  and  _22
REMARK   11  A    between atoms: _24  and  _26
REMARK   12  A    between atoms: _26  and  _27
REMARK   13  A    between atoms: _30  and  _32
REMARK   14  A    between atoms: _32  and  _33
REMARK   15  A    between atoms: _35  and  _37
REMARK   16  A    between atoms: _37  and  _38
REMARK   17  A    between atoms: _37  and  _40
REMARK   18  A    between atoms: _40  and  _41
REMARK   19  A    between atoms: _46  and  _48
REMARK   20  A    between atoms: _48  and  _49
REMARK   21  A    between atoms: _48  and  _51
REMARK   22  A    between atoms: _51  and  _52
REMARK   23  A    between atoms: _55  and  _57
REMARK   24  A    between atoms: _57  and  _58
REMARK   25  A    between atoms: _60  and  _62
REMARK   26  A    between atoms: _62  and  _63
REMARK   27  A    between atoms: _62  and  _65
REMARK   28  A    between atoms: _65  and  _66
REMARK   29  A    between atoms: _66  and  _67
REMARK   30  A    between atoms: _72  and  _74
REMARK   31  A    between atoms: _74  and  _75
REMARK   32  A    between atoms: _78  and  _80
REMARK   33  A    between atoms: _80  and  _81
REMARK   34  A    between atoms: _80  and  _83
REMARK   35  A    between atoms: _83  and  _84
REMARK   36  A    between atoms: _87  and  _89
REMARK   37  A    between atoms: _89  and  _90
REMARK   38  A    between atoms: _89  and  _92
REMARK   39  A    between atoms: _92  and  _93
REMARK   40  A    between atoms: _96  and  _98
REMARK   41  A    between atoms: _98  and  _99
REMARK   42  A    between atoms: _98  and  _101
REMARK   43  A    between atoms: _101  and  _102
REMARK   44  A    between atoms: _108  and  _110
REMARK   45  A    between atoms: _110  and  _111
REMARK   46  A    between atoms: _110  and  _113
REMARK   47  A    between atoms: _113  and  _114
REMARK   48  A    between atoms: _117  and  _119
REMARK   49  A    between atoms: _119  and  _120
REMARK   50  A    between atoms: _119  and  _122
REMARK   51  A    between atoms: _122  and  _123
REMARK   52  A    between atoms: _126  and  _128
REMARK   53  A    between atoms: _128  and  _129
REMARK   54  A    between atoms: _128  and  _131
REMARK   55  A    between atoms: _131  and  _132
REMARK   56  A    between atoms: _138  and  _139
REMARK   57  A    between atoms: _144  and  _146
REMARK   58  A    between atoms: _146  and  _147
REMARK   59  A    between atoms: _146  and  _149
REMARK   60  A    between atoms: _149  and  _150
REMARK   61  A    between atoms: _150  and  _151
REMARK   62  A    between atoms: _151  and  _152
REMARK   63  A    between atoms: _161  and  _163
REMARK   64  A    between atoms: _163  and  _164
REMARK   65  A    between atoms: _163  and  _166
REMARK   66  A    between atoms: _166  and  _167
REMARK   67  A    between atoms: _170  and  _172
REMARK   68  A    between atoms: _172  and  _173
REMARK   69  A    between atoms: _172  and  _175
REMARK   70  A    between atoms: _175  and  _176
REMARK   71  A    between atoms: _182  and  _184
REMARK   72  A    between atoms: _184  and  _185
REMARK   73  A    between atoms: _184  and  _187
REMARK   74  A    between atoms: _190  and  _192
REMARK   75  A    between atoms: _192  and  _193
REMARK   76  A    between atoms: _192  and  _195
REMARK   77  A    between atoms: _195  and  _196
REMARK   78  A    between atoms: _196  and  _197
REMARK   79  A    between atoms: _199  and  _201
REMARK   80  A    between atoms: _201  and  _202
REMARK   81  A    between atoms: _201  and  _204
REMARK   82  A    between atoms: _204  and  _205
REMARK   83  A    between atoms: _208  and  _210
REMARK   84  A    between atoms: _210  and  _211
REMARK   85  A    between atoms: _210  and  _213
REMARK   86  A    between atoms: _216  and  _218
REMARK   87  A    between atoms: _218  and  _219
REMARK   88  A    between atoms: _218  and  _221
REMARK   89  A    between atoms: _221  and  _222
REMARK   90  A    between atoms: _222  and  _223
REMARK   91  A    between atoms: _226  and  _228
REMARK   92  A    between atoms: _228  and  _229
REMARK   93  A    between atoms: _228  and  _231
REMARK   94  A    between atoms: _234  and  _236
REMARK   95  A    between atoms: _236  and  _237
REMARK   96  A    between atoms: _236  and  _239
REMARK   97  A    between atoms: _239  and  _240
REMARK   98  A    between atoms: _243  and  _245
REMARK   99  A    between atoms: _245  and  _246
REMARK  100  A    between atoms: _245  and  _248
REMARK  101  A    between atoms: _250  and  _252
REMARK  102  A    between atoms: _252  and  _253
REMARK  103  A    between atoms: _252  and  _255
REMARK  104  A    between atoms: _255  and  _256
REMARK  105  A    between atoms: _260  and  _261
REMARK  106  A    between atoms: _266  and  _268
REMARK  107  A    between atoms: _268  and  _269
REMARK  108  A    between atoms: _268  and  _271
REMARK  109  A    between atoms: _271  and  _272
REMARK  110  A    between atoms: _272  and  _273
REMARK  111  A    between atoms: _273  and  _274
REMARK  112  A    between atoms: _274  and  _275
REMARK  113  A    between atoms: _279  and  _281
REMARK  114  A    between atoms: _281  and  _282
REMARK  115  A    between atoms: _281  and  _284
REMARK  116  A    between atoms: _284  and  _285
REMARK  117  A    between atoms: _288  and  _290
REMARK  118  A    between atoms: _290  and  _291
REMARK  119  A    between atoms: _290  and  _293
REMARK  120  A    between atoms: _293  and  _294
REMARK  121  A    between atoms: _299  and  _301
REMARK  122  A    between atoms: _301  and  _302
REMARK  123  A    between atoms: _305  and  _307
REMARK  124  A    between atoms: _307  and  _308
REMARK  125  A    between atoms: _307  and  _310
REMARK  126  A    between atoms: _310  and  _311
REMARK  127  A    between atoms: _316  and  _317
REMARK  128  A    between atoms: _319  and  _321
REMARK  129  A    between atoms: _321  and  _322
REMARK  130  A    between atoms: _321  and  _324
REMARK  131  A    between atoms: _324  and  _325
REMARK  132  A    between atoms: _328  and  _330
REMARK  133  A    between atoms: _330  and  _331
REMARK  134  A    between atoms: _334  and  _336
REMARK  135  A    between atoms: _336  and  _337
REMARK  136  A    between atoms: _336  and  _339
REMARK  137  A    between atoms: _339  and  _340
REMARK  138  A    between atoms: _340  and  _341
REMARK  139  A    between atoms: _341  and  _342
REMARK  140  A    between atoms: _351  and  _353
REMARK  141  A    between atoms: _353  and  _354
REMARK  142  A    between atoms: _353  and  _356
REMARK  143  A    between atoms: _356  and  _357
REMARK  144  A    between atoms: _362  and  _364
REMARK  145  A    between atoms: _364  and  _365
REMARK  146  A    between atoms: _364  and  _367
REMARK  147  A    between atoms: _367  and  _368
REMARK  148  A    between atoms: _374  and  _376
REMARK  149  A    between atoms: _376  and  _377
REMARK  150  A    between atoms: _376  and  _379
REMARK  151  A    between atoms: _379  and  _380
REMARK  152  A    between atoms: _384  and  _385
REMARK  153  A    between atoms: _390  and  _392
REMARK  154  A    between atoms: _392  and  _393
REMARK  155  A    between atoms: _392  and  _395
REMARK  156  A    between atoms: _395  and  _396
REMARK  157  A    between atoms: _399  and  _401
REMARK  158  A    between atoms: _401  and  _402
REMARK  159  A    between atoms: _401  and  _404
REMARK  160  A    between atoms: _407  and  _409
REMARK  161  A    between atoms: _409  and  _410
REMARK  162  A    between atoms: _409  and  _412
REMARK  163  A    between atoms: _412  and  _413
REMARK  164  A    between atoms: _418  and  _420
REMARK  165  A    between atoms: _420  and  _421
REMARK  166  A    between atoms: _420  and  _423
REMARK  167  A    between atoms: _423  and  _424
REMARK  168  A    between atoms: _427  and  _429
REMARK  169  A    between atoms: _429  and  _430
REMARK  170  A    between atoms: _429  and  _432
REMARK  171  A    between atoms: _432  and  _433
REMARK  172  A    between atoms: _435  and  _437
REMARK  173  A    between atoms: _437  and  _438
REMARK  174  A    between atoms: _437  and  _440
REMARK  175  A    between atoms: _440  and  _441
REMARK  176  A    between atoms: _447  and  _449
REMARK  177  A    between atoms: _449  and  _450
REMARK  178  A    between atoms: _449  and  _452
REMARK  179  A    between atoms: _452  and  _453
REMARK  180  A    between atoms: _458  and  _460
REMARK  181  A    between atoms: _460  and  _461
REMARK  182  A    between atoms: _460  and  _463
REMARK  183  A    between atoms: _463  and  _464
REMARK  184  A    between atoms: _467  and  _469
REMARK  185  A    between atoms: _469  and  _470
REMARK  186  A    between atoms: _472  and  _474
REMARK  187  A    between atoms: _474  and  _475
REMARK  188  A    between atoms: _474  and  _477
REMARK  189  A    between atoms: _477  and  _478
REMARK  190  A    between atoms: _478  and  _479
REMARK  191  A    between atoms: _484  and  _486
REMARK  192  A    between atoms: _486  and  _487
REMARK  193  A    between atoms: _490  and  _492
REMARK  194  A    between atoms: _492  and  _493
REMARK  195  A    between atoms: _492  and  _495
REMARK  196  A    between atoms: _495  and  _496
REMARK  197  A    between atoms: _499  and  _501
REMARK  198  A    between atoms: _501  and  _502
REMARK  199  A    between atoms: _505  and  _507
REMARK  200  A    between atoms: _507  and  _508
REMARK  201  A    between atoms: _507  and  _510
REMARK  202  A    between atoms: _510  and  _511
REMARK  203  A    between atoms: _516  and  _518
REMARK  204  A    between atoms: _518  and  _519
REMARK  205  A    between atoms: _518  and  _521
REMARK  206  A    between atoms: _521  and  _522
REMARK  207  A    between atoms: _527  and  _528
REMARK  208  A    between atoms: _530  and  _532
REMARK  209  A    between atoms: _532  and  _533
REMARK  210  A    between atoms: _532  and  _535
REMARK  211  A    between atoms: _535  and  _536
REMARK  212  A    between atoms: _539  and  _541
REMARK  213  A    between atoms: _541  and  _542
REMARK  214  A    between atoms: _541  and  _544
REMARK  215  A    between atoms: _544  and  _545
REMARK  216  A    between atoms: _547  and  _549
REMARK  217  A    between atoms: _549  and  _550
REMARK  218  A    between atoms: _549  and  _552
REMARK  219  A    between atoms: _552  and  _553
REMARK  220  A    between atoms: _559  and  _561
REMARK  221  A    between atoms: _561  and  _562
REMARK  222  A    between atoms: _561  and  _564
REMARK  223  A    between atoms: _564  and  _565
REMARK  224  A    between atoms: _565  and  _566
REMARK  225  A    between atoms: _569  and  _571
REMARK  226  A    between atoms: _571  and  _572
REMARK  227  A    between atoms: _571  and  _574
REMARK  228  A    between atoms: _574  and  _575
REMARK  229  A    between atoms: _575  and  _576
REMARK  230  A    between atoms: _576  and  _577
REMARK  231  A    between atoms: _577  and  _578
REMARK  232  A    between atoms: _582  and  _584
REMARK  233  A    between atoms: _584  and  _585
REMARK  234  A    between atoms: _584  and  _587
REMARK  235  A    between atoms: _587  and  _588
REMARK  236  A    between atoms: _590  and  _592
REMARK  237  A    between atoms: _592  and  _593
REMARK  238  A    between atoms: _592  and  _595
REMARK  239  A    between atoms: _595  and  _596
REMARK  240  A    between atoms: _596  and  _597
REMARK  241  A    between atoms: _597  and  _598
REMARK                            x       y       z     vdW  Elec       q    Type
REMARK                         _______ _______ _______ _____ _____    ______ ____
ROOT
ATOM      1  NE  ARG A   1      -4.224  10.425   9.841  0.00  0.00    -0.265 N 
ATOM      2  HE  ARG A   1      -4.466   9.455   9.554  0.00  0.00    +0.259 HD
ATOM      3  CZ  ARG A   1      -4.426  11.388   8.949  0.00  0.00    +0.342 C 
ATOM      4  NH2 ARG A   1      -4.119  12.650   9.244  0.00  0.00    -0.292 N 
ATOM      5 HH21 ARG A   1      -3.720  12.884  10.175  0.00  0.00    +0.255 HD
ATOM      6 HH22 ARG A   1      -4.279  13.401   8.543  0.00  0.00    +0.255 HD
ATOM      7  NH1 ARG A   1      -4.927  11.065   7.747  0.00  0.00    -0.292 N 
ATOM      8 HH11 ARG A   1      -5.151  10.074   7.526  0.00  0.00    +0.255 HD
ATOM      9 HH12 ARG A   1      -5.092  11.806   7.036  0.00  0.00    +0.255 HD
ENDROOT
BRANCH   1  10
ATOM     10  CD  ARG A   1      -3.695  10.605  11.183  0.00  0.00    +0.174 C 
BRANCH  10  11
ATOM     11  CG  ARG A   1      -2.996   9.336  11.638  0.00  0.00    +0.045 C 
BRANCH  11  12
ATOM     12  CB  ARG A   1      -1.709   9.122  10.886  0.00  0.00    +0.029 C 
BRANCH  12  13
ATOM     13  CA  ARG A   1      -1.063   7.769  11.146  0.00  0.00    +0.133 C 
BRANCH  13  14
ATOM     14  N   ARG A   1      -0.603   7.700  12.537  0.00  0.00    -0.239 NA
ATOM     15  H   ARG A   1      -0.764   8.511  13.168  0.00  0.00    +0.142 HD
ENDBRANCH  13  14
BRANCH  13  16
ATOM     16  C   ARG A   1       0.020   7.500  10.101  0.00  0.00    +0.224 C 
ATOM     17  O   ARG A   1      -0.210   6.783   9.126  0.00  0.00    -0.287 OA
ENDBRANCH  13  16
ENDBRANCH  12  13
ENDBRANCH  11  12
ENDBRANCH  10  11
ENDBRANCH   1  10
TORSDOF 6
REMARK  Name = ../refined-set-2016/3wgg/3wgg_pocket.pdb
REMARK  241 active torsions:
REMARK  status: ('A' for Active; 'I' for Inactive)
REMARK    1  A    between atoms: _1  and  _3
REMARK    2  A    between atoms: _3  and  _4
REMARK    3  A    between atoms: _3  and  _6
REMARK    4  A    between atoms: _6  and  _7
REMARK    5  A    between atoms: _10  and  _12
REMARK    6  A    between atoms: _12  and  _13
REMARK    7  A    between atoms: _12  and  _15
REMARK    8  A    between atoms: _15  and  _16
REMARK    9  A    between atoms: _19  and  _21
REMARK   10  A    between atoms: _21  and  _22
REMARK   11  A    between atoms: _24  and  _26
REMARK   12  A    between atoms: _26  and  _27
REMARK   13  A    between atoms: _30  and  _32
REMARK   14  A    between atoms: _32  and  _33
REMARK   15  A    between atoms: _35  and  _37
REMARK   16  A    between atoms: _37  and  _38
REMARK   17  A    between atoms: _37  and  _40
REMARK   18  A    between atoms: _40  and  _41
REMARK   19  A    between atoms: _46  and  _48
REMARK   20  A    between atoms: _48  and  _49
REMARK   21  A    between atoms: _48  and  _51
REMARK   22  A    between atoms: _51  and  _52
REMARK   23  A    between atoms: _55  and  _57
REMARK   24  A    between atoms: _57  and  _58
REMARK   25  A    between atoms: _60  and  _62
REMARK   26  A    between atoms: _62  and  _63
REMARK   27  A    between atoms: _62  and  _65
REMARK   28  A    between atoms: _65  and  _66
REMARK   29  A    between atoms: _66  and  _67
REMARK   30  A    between atoms: _72  and  _74
REMARK   31  A    between atoms: _74  and  _75
REMARK   32  A    between atoms: _78  and  _80
REMARK   33  A    between atoms: _80  and  _81
REMARK   34  A    between atoms: _80  and  _83
REMARK   35  A    between atoms: _83  and  _84
REMARK   36  A    between atoms: _87  and  _89
REMARK   37  A    between atoms: _89  and  _90
REMARK   38  A    between atoms: _89  and  _92
REMARK   39  A    between atoms: _92  and  _93
REMARK   40  A    between atoms: _96  and  _98
REMARK   41  A    between atoms: _98  and  _99
REMARK   42  A    between atoms: _98  and  _101
REMARK   43  A    between atoms: _101  and  _102
REMARK   44  A    between atoms: _108  and  _110
REMARK   45  A    between atoms: _110  and  _111
REMARK   46  A    between atoms: _110  and  _113
REMARK   47  A    between atoms: _113  and  _114
REMARK   48  A    between atoms: _117  and  _119
REMARK   49  A    between atoms: _119  and  _120
REMARK   50  A    between atoms: _119  and  _122
REMARK   51  A    between atoms: _122  and  _123
REMARK   52  A    between atoms: _126  and  _128
REMARK   53  A    between atoms: _128  and  _129
REMARK   54  A    between atoms: _128  and  _131
REMARK   55  A    between atoms: _131  and  _132
REMARK   56  A    between atoms: _138  and  _139
REMARK   57  A    between atoms: _144  and  _146
REMARK   58  A    between atoms: _146  and  _147
REMARK   59  A    between atoms: _146  and  _149
REMARK   60  A    between atoms: _149  and  _150
REMARK   61  A    between atoms: _150  and  _151
REMARK   62  A    between atoms: _151  and  _152
REMARK   63  A    between atoms: _161  and  _163
REMARK   64  A    between atoms: _163  and  _164
REMARK   65  A    between atoms: _163  and  _166
REMARK   66  A    between atoms: _166  and  _167
REMARK   67  A    between atoms: _170  and  _172
REMARK   68  A    between atoms: _172  and  _173
REMARK   69  A    between atoms: _172  and  _175
REMARK   70  A    between atoms: _175  and  _176
REMARK   71  A    between atoms: _182  and  _184
REMARK   72  A    between atoms: _184  and  _185
REMARK   73  A    between atoms: _184  and  _187
REMARK   74  A    between atoms: _190  and  _192
REMARK   75  A    between atoms: _192  and  _193
REMARK   76  A    between atoms: _192  and  _195
REMARK   77  A    between atoms: _195  and  _196
REMARK   78  A    between atoms: _196  and  _197
REMARK   79  A    between atoms: _199  and  _201
REMARK   80  A    between atoms: _201  and  _202
REMARK   81  A    between atoms: _201  and  _204
REMARK   82  A    between atoms: _204  and  _205
REMARK   83  A    between atoms: _208  and  _210
REMARK   84  A    between atoms: _210  and  _211
REMARK   85  A    between atoms: _210  and  _213
REMARK   86  A    between atoms: _216  and  _218
REMARK   87  A    between atoms: _218  and  _219
REMARK   88  A    between atoms: _218  and  _221
REMARK   89  A    between atoms: _221  and  _222
REMARK   90  A    between atoms: _222  and  _223
REMARK   91  A    between atoms: _226  and  _228
REMARK   92  A    between atoms: _228  and  _229
REMARK   93  A    between atoms: _228  and  _231
REMARK   94  A    between atoms: _234  and  _236
REMARK   95  A    between atoms: _236  and  _237
REMARK   96  A    between atoms: _236  and  _239
REMARK   97  A    between atoms: _239  and  _240
REMARK   98  A    between atoms: _243  and  _245
REMARK   99  A    between atoms: _245  and  _246
REMARK  100  A    between atoms: _245  and  _248
REMARK  101  A    between atoms: _250  and  _252
REMARK  102  A    between atoms: _252  and  _253
REMARK  103  A    between atoms: _252  and  _255
REMARK  104  A    between atoms: _255  and  _256
REMARK  105  A    between atoms: _260  and  _261
REMARK  106  A    between atoms: _266  and  _268
REMARK  107  A    between atoms: _268  and  _269
REMARK  108  A    between atoms: _268  and  _271
REMARK  109  A    between atoms: _271  and  _272
REMARK  110  A    between atoms: _272  and  _273
REMARK  111  A    between atoms: _273  and  _274
REMARK  112  A    between atoms: _274  and  _275
REMARK  113  A    between atoms: _279  and  _281
REMARK  114  A    between atoms: _281  and  _282
REMARK  115  A    between atoms: _281  and  _284
REMARK  116  A    between atoms: _284  and  _285
REMARK  117  A    between atoms: _288  and  _290
REMARK  118  A    between atoms: _290  and  _291
REMARK  119  A    between atoms: _290  and  _293
REMARK  120  A    between atoms: _293  and  _294
REMARK  121  A    between atoms: _299  and  _301
REMARK  122  A    between atoms: _301  and  _302
REMARK  123  A    between atoms: _305  and  _307
REMARK  124  A    between atoms: _307  and  _308
REMARK  125  A    between atoms: _307  and  _310
REMARK  126  A    between atoms: _310  and  _311
REMARK  127  A    between atoms: _316  and  _317
REMARK  128  A    between atoms: _319  and  _321
REMARK  129  A    between atoms: _321  and  _322
REMARK  130  A    between atoms: _321  and  _324
REMARK  131  A    between atoms: _324  and  _325
REMARK  132  A    between atoms: _328  and  _330
REMARK  133  A    between atoms: _330  and  _331
REMARK  134  A    between atoms: _334  and  _336
REMARK  135  A    between atoms: _336  and  _337
REMARK  136  A    between atoms: _336  and  _339
REMARK  137  A    between atoms: _339  and  _340
REMARK  138  A    between atoms: _340  and  _341
REMARK  139  A    between atoms: _341  and  _342
REMARK  140  A    between atoms: _351  and  _353
REMARK  141  A    between atoms: _353  and  _354
REMARK  142  A    between atoms: _353  and  _356
REMARK  143  A    between atoms: _356  and  _357
REMARK  144  A    between atoms: _362  and  _364
REMARK  145  A    between atoms: _364  and  _365
REMARK  146  A    between atoms: _364  and  _367
REMARK  147  A    between atoms: _367  and  _368
REMARK  148  A    between atoms: _374  and  _376
REMARK  149  A    between atoms: _376  and  _377
REMARK  150  A    between atoms: _376  and  _379
REMARK  151  A    between atoms: _379  and  _380
REMARK  152  A    between atoms: _384  and  _385
REMARK  153  A    between atoms: _390  and  _392
REMARK  154  A    between atoms: _392  and  _393
REMARK  155  A    between atoms: _392  and  _395
REMARK  156  A    between atoms: _395  and  _396
REMARK  157  A    between atoms: _399  and  _401
REMARK  158  A    between atoms: _401  and  _402
REMARK  159  A    between atoms: _401  and  _404
REMARK  160  A    between atoms: _407  and  _409
REMARK  161  A    between atoms: _409  and  _410
REMARK  162  A    between atoms: _409  and  _412
REMARK  163  A    between atoms: _412  and  _413
REMARK  164  A    between atoms: _418  and  _420
REMARK  165  A    between atoms: _420  and  _421
REMARK  166  A    between atoms: _420  and  _423
REMARK  167  A    between atoms: _423  and  _424
REMARK  168  A    between atoms: _427  and  _429
REMARK  169  A    between atoms: _429  and  _430
REMARK  170  A    between atoms: _429  and  _432
REMARK  171  A    between atoms: _432  and  _433
REMARK  172  A    between atoms: _435  and  _437
REMARK  173  A    between atoms: _437  and  _438
REMARK  174  A    between atoms: _437  and  _440
REMARK  175  A    between atoms: _440  and  _441
REMARK  176  A    between atoms: _447  and  _449
REMARK  177  A    between atoms: _449  and  _450
REMARK  178  A    between atoms: _449  and  _452
REMARK  179  A    between atoms: _452  and  _453
REMARK  180  A    between atoms: _458  and  _460
REMARK  181  A    between atoms: _460  and  _461
REMARK  182  A    between atoms: _460  and  _463
REMARK  183  A    between atoms: _463  and  _464
REMARK  184  A    between atoms: _467  and  _469
REMARK  185  A    between atoms: _469  and  _470
REMARK  186  A    between atoms: _472  and  _474
REMARK  187  A    between atoms: _474  and  _475
REMARK  188  A    between atoms: _474  and  _477
REMARK  189  A    between atoms: _477  and  _478
REMARK  190  A    between atoms: _478  and  _479
REMARK  191  A    between atoms: _484  and  _486
REMARK  192  A    between atoms: _486  and  _487
REMARK  193  A    between atoms: _490  and  _492
REMARK  194  A    between atoms: _492  and  _493
REMARK  195  A    between atoms: _492  and  _495
REMARK  196  A    between atoms: _495  and  _496
REMARK  197  A    between atoms: _499  and  _501
REMARK  198  A    between atoms: _501  and  _502
REMARK  199  A    between atoms: _505  and  _507
REMARK  200  A    between atoms: _507  and  _508
REMARK  201  A    between atoms: _507  and  _510
REMARK  202  A    between atoms: _510  and  _511
REMARK  203  A    between atoms: _516  and  _518
REMARK  204  A    between atoms: _518  and  _519
REMARK  205  A    between atoms: _518  and  _521
REMARK  206  A    between atoms: _521  and  _522
REMARK  207  A    between atoms: _527  and  _528
REMARK  208  A    between atoms: _530  and  _532
REMARK  209  A    between atoms: _532  and  _533
REMARK  210  A    between atoms: _532  and  _535
REMARK  211  A    between atoms: _535  and  _536
REMARK  212  A    between atoms: _539  and  _541
REMARK  213  A    between atoms: _541  and  _542
REMARK  214  A    between atoms: _541  and  _544
REMARK  215  A    between atoms: _544  and  _545
REMARK  216  A    between atoms: _547  and  _549
REMARK  217  A    between atoms: _549  and  _550
REMARK  218  A    between atoms: _549  and  _552
REMARK  219  A    between atoms: _552  and  _553
REMARK  220  A    between atoms: _559  and  _561
REMARK  221  A    between atoms: _561  and  _562
REMARK  222  A    between atoms: _561  and  _564
REMARK  223  A    between atoms: _564  and  _565
REMARK  224  A    between atoms: _565  and  _566
REMARK  225  A    between atoms: _569  and  _571
REMARK  226  A    between atoms: _571  and  _572
REMARK  227  A    between atoms: _571  and  _574
REMARK  228  A    between atoms: _574  and  _575
REMARK  229  A    between atoms: _575  and  _576
REMARK  230  A    between atoms: _576  and  _577
REMARK  231  A    between atoms: _577  and  _578
REMARK  232  A    between atoms: _582  and  _584
REMARK  233  A    between atoms: _584  and  _585
REMARK  234  A    between atoms: _584  and  _587
REMARK  235  A    between atoms: _587  and  _588
REMARK  236  A    between atoms: _590  and  _592
REMARK  237  A    between atoms: _592  and  _593
REMARK  238  A    between atoms: _592  and  _595
REMARK  239  A    between atoms: _595  and  _596
REMARK  240  A    between atoms: _596  and  _597
REMARK  241  A    between atoms: _597  and  _598
REMARK                            x       y       z     vdW  Elec       q    Type
REMARK                         _______ _______ _______ _____ _____    ______ ____
ROOT
ATOM      1  C   PHE A   2      11.387  17.877  16.904  0.00  0.00    +0.241 C 
ATOM      2  O   PHE A   2      11.916  18.770  17.571  0.00  0.00    -0.273 OA
ATOM      3  N   LEU A   3      10.374  17.138  17.363  0.00  0.00    -0.297 N 
ATOM      4  H   LEU A   3      10.017  16.348  16.788  0.00  0.00    +0.150 HD
ENDROOT
BRANCH   1   5
ATOM      5  CA  PHE A   2      11.940  17.536  15.516  0.00  0.00    +0.153 C 
BRANCH   5   8
ATOM      6  C   ASN A   1      11.941  15.119  15.114  0.00  0.00    +0.239 C 
ATOM      7  O   ASN A   1      12.964  14.957  15.804  0.00  0.00    -0.274 OA
ATOM      8  N   PHE A   2      11.384  16.314  14.895  0.00  0.00    -0.297 N 
ATOM      9  H   PHE A   2      10.549  16.386  14.280  0.00  0.00    +0.150 HD
BRANCH   6  10
ATOM     10  CA  ASN A   1      11.258  13.915  14.490  0.00  0.00    +0.154 C 
BRANCH  10  11
ATOM     11  N   ASN A   1      12.149  13.190  13.626  0.00  0.00    -0.238 NA
ATOM     12  H   ASN A   1      12.912  12.612  14.032  0.00  0.00    +0.142 HD
ENDBRANCH  10  11
BRANCH  10  13
ATOM     13  CB  ASN A   1      10.712  12.970  15.584  0.00  0.00    +0.111 C 
BRANCH  13  14
ATOM     14  CG  ASN A   1      10.115  13.726  16.796  0.00  0.00    +0.221 C 
ATOM     15  ND2 ASN A   1      10.516  13.322  18.016  0.00  0.00    -0.329 N 
ATOM     16 HD21 ASN A   1      10.120  13.768  18.868  0.00  0.00    +0.145 HD
ATOM     17 HD22 ASN A   1      11.222  12.564  18.107  0.00  0.00    +0.145 HD
ATOM     18  OD1 ASN A   1       9.283  14.618  16.639  0.00  0.00    -0.275 OA
ENDBRANCH  13  14
ENDBRANCH  10  13
ENDBRANCH   6  10
ENDBRANCH   5   8
BRANCH   5  19
ATOM     19  CB  PHE A   2      11.873  18.762  14.592  0.00  0.00    +0.055 C 
BRANCH  19  20
ATOM     20  CG  PHE A   2      12.917  18.748  13.500  0.00  0.00    -0.020 A 
ATOM     21  CD2 PHE A   2      14.063  19.505  13.625  0.00  0.00    -0.004 A 
ATOM     22  CE2 PHE A   2      15.027  19.514  12.627  0.00  0.00    -0.000 A 
ATOM     23  CZ  PHE A   2      14.889  18.731  11.521  0.00  0.00    -0.000 A 
ATOM     24  CE1 PHE A   2      13.721  17.918  11.383  0.00  0.00    -0.000 A 
ATOM     25  CD1 PHE A   2      12.762  17.944  12.379  0.00  0.00    -0.004 A 
ENDBRANCH  19  20
ENDBRANCH   5  19
ENDBRANCH   1   5
BRANCH   3  26
ATOM     26  CA  LEU A   3       9.751  17.420  18.671  0.00  0.00    +0.149 C 
BRANCH  26  27
ATOM     27  C   LEU A   3      10.425  16.753  19.883  0.00  0.00    +0.244 C 
ATOM     28  N   PRO A   4      10.519  17.478  21.029  0.00  0.00    -0.272 N 
ATOM     29  CA  PRO A   4      11.062  16.845  22.235  0.00  0.00    +0.152 C 
ATOM     30  CB  PRO A   4      11.532  18.027  23.061  0.00  0.00    +0.031 C 
ATOM     31  CG  PRO A   4      10.532  19.078  22.748  0.00  0.00    +0.024 C 
ATOM     32  CD  PRO A   4      10.178  18.887  21.272  0.00  0.00    +0.094 C 
ATOM     33  O   LEU A   3      10.844  15.593  19.802  0.00  0.00    -0.273 OA
BRANCH  29  34
ATOM     34  C   PRO A   4       9.974  16.087  22.982  0.00  0.00    +0.241 C 
ATOM     35  O   PRO A   4       9.568  16.486  24.066  0.00  0.00    -0.273 OA
ATOM     36  N   ILE A   5       9.490  15.017  22.381  0.00  0.00    -0.298 N 
ATOM     37  H   ILE A   5       9.786  14.827  21.402  0.00  0.00    +0.150 HD
BRANCH  36  38
ATOM     38  CA  ILE A   5       8.568  14.092  23.011  0.00  0.00    +0.137 C 
BRANCH  38  39
ATOM     39  C   ILE A   5       9.361  12.860  22.686  0.00  0.00    +0.227 C 
ATOM     40  O   ILE A   5      10.175  12.914  21.774  0.00  0.00    -0.286 OA
ENDBRANCH  38  39
BRANCH  38  41
ATOM     41  CB  ILE A   5       7.251  13.994  22.190  0.00  0.00    +0.026 C 
ATOM     42  CG2 ILE A   5       6.376  12.805  22.630  0.00  0.00    +0.002 C 
BRANCH  41  43
ATOM     43  CG1 ILE A   5       6.477  15.292  22.240  0.00  0.00    +0.002 C 
ATOM     44  CD1 ILE A   5       5.576  15.456  23.493  0.00  0.00    +0.000 C 
ENDBRANCH  41  43
ENDBRANCH  38  41
ENDBRANCH  36  38
ENDBRANCH  29  34
ENDBRANCH  26  27
BRANCH  26  45
ATOM     45  CB  LEU A   3       8.249  17.102  18.663  0.00  0.00    +0.029 C 
BRANCH  45  46
ATOM     46  CG  LEU A   3       7.464  16.960  17.352  0.00  0.00    +0.002 C 
ATOM     47  CD2 LEU A   3       5.997  16.964  17.667  0.00  0.00    +0.000 C 
ATOM     48  CD1 LEU A   3       7.770  18.015  16.318  0.00  0.00    +0.000 C 
ENDBRANCH  45  46
ENDBRANCH  26  45
ENDBRANCH   3  26
TORSDOF 17
REMARK  Name = ../refined-set-2016/3wgg/3wgg_pocket.pdb
REMARK  241 active torsions:
REMARK  status: ('A' for Active; 'I' for Inactive)
REMARK    1  A    between atoms: _1  and  _3
REMARK    2  A    between atoms: _3  and  _4
REMARK    3  A    between atoms: _3  and  _6
REMARK    4  A    between atoms: _6  and  _7
REMARK    5  A    between atoms: _10  and  _12
REMARK    6  A    between atoms: _12  and  _13
REMARK    7  A    between atoms: _12  and  _15
REMARK    8  A    between atoms: _15  and  _16
REMARK    9  A    between atoms: _19  and  _21
REMARK   10  A    between atoms: _21  and  _22
REMARK   11  A    between atoms: _24  and  _26
REMARK   12  A    between atoms: _26  and  _27
REMARK   13  A    between atoms: _30  and  _32
REMARK   14  A    between atoms: _32  and  _33
REMARK   15  A    between atoms: _35  and  _37
REMARK   16  A    between atoms: _37  and  _38
REMARK   17  A    between atoms: _37  and  _40
REMARK   18  A    between atoms: _40  and  _41
REMARK   19  A    between atoms: _46  and  _48
REMARK   20  A    between atoms: _48  and  _49
REMARK   21  A    between atoms: _48  and  _51
REMARK   22  A    between atoms: _51  and  _52
REMARK   23  A    between atoms: _55  and  _57
REMARK   24  A    between atoms: _57  and  _58
REMARK   25  A    between atoms: _60  and  _62
REMARK   26  A    between atoms: _62  and  _63
REMARK   27  A    between atoms: _62  and  _65
REMARK   28  A    between atoms: _65  and  _66
REMARK   29  A    between atoms: _66  and  _67
REMARK   30  A    between atoms: _72  and  _74
REMARK   31  A    between atoms: _74  and  _75
REMARK   32  A    between atoms: _78  and  _80
REMARK   33  A    between atoms: _80  and  _81
REMARK   34  A    between atoms: _80  and  _83
REMARK   35  A    between atoms: _83  and  _84
REMARK   36  A    between atoms: _87  and  _89
REMARK   37  A    between atoms: _89  and  _90
REMARK   38  A    between atoms: _89  and  _92
REMARK   39  A    between atoms: _92  and  _93
REMARK   40  A    between atoms: _96  and  _98
REMARK   41  A    between atoms: _98  and  _99
REMARK   42  A    between atoms: _98  and  _101
REMARK   43  A    between atoms: _101  and  _102
REMARK   44  A    between atoms: _108  and  _110
REMARK   45  A    between atoms: _110  and  _111
REMARK   46  A    between atoms: _110  and  _113
REMARK   47  A    between atoms: _113  and  _114
REMARK   48  A    between atoms: _117  and  _119
REMARK   49  A    between atoms: _119  and  _120
REMARK   50  A    between atoms: _119  and  _122
REMARK   51  A    between atoms: _122  and  _123
REMARK   52  A    between atoms: _126  and  _128
REMARK   53  A    between atoms: _128  and  _129
REMARK   54  A    between atoms: _128  and  _131
REMARK   55  A    between atoms: _131  and  _132
REMARK   56  A    between atoms: _138  and  _139
REMARK   57  A    between atoms: _144  and  _146
REMARK   58  A    between atoms: _146  and  _147
REMARK   59  A    between atoms: _146  and  _149
REMARK   60  A    between atoms: _149  and  _150
REMARK   61  A    between atoms: _150  and  _151
REMARK   62  A    between atoms: _151  and  _152
REMARK   63  A    between atoms: _161  and  _163
REMARK   64  A    between atoms: _163  and  _164
REMARK   65  A    between atoms: _163  and  _166
REMARK   66  A    between atoms: _166  and  _167
REMARK   67  A    between atoms: _170  and  _172
REMARK   68  A    between atoms: _172  and  _173
REMARK   69  A    between atoms: _172  and  _175
REMARK   70  A    between atoms: _175  and  _176
REMARK   71  A    between atoms: _182  and  _184
REMARK   72  A    between atoms: _184  and  _185
REMARK   73  A    between atoms: _184  and  _187
REMARK   74  A    between atoms: _190  and  _192
REMARK   75  A    between atoms: _192  and  _193
REMARK   76  A    between atoms: _192  and  _195
REMARK   77  A    between atoms: _195  and  _196
REMARK   78  A    between atoms: _196  and  _197
REMARK   79  A    between atoms: _199  and  _201
REMARK   80  A    between atoms: _201  and  _202
REMARK   81  A    between atoms: _201  and  _204
REMARK   82  A    between atoms: _204  and  _205
REMARK   83  A    between atoms: _208  and  _210
REMARK   84  A    between atoms: _210  and  _211
REMARK   85  A    between atoms: _210  and  _213
REMARK   86  A    between atoms: _216  and  _218
REMARK   87  A    between atoms: _218  and  _219
REMARK   88  A    between atoms: _218  and  _221
REMARK   89  A    between atoms: _221  and  _222
REMARK   90  A    between atoms: _222  and  _223
REMARK   91  A    between atoms: _226  and  _228
REMARK   92  A    between atoms: _228  and  _229
REMARK   93  A    between atoms: _228  and  _231
REMARK   94  A    between atoms: _234  and  _236
REMARK   95  A    between atoms: _236  and  _237
REMARK   96  A    between atoms: _236  and  _239
REMARK   97  A    between atoms: _239  and  _240
REMARK   98  A    between atoms: _243  and  _245
REMARK   99  A    between atoms: _245  and  _246
REMARK  100  A    between atoms: _245  and  _248
REMARK  101  A    between atoms: _250  and  _252
REMARK  102  A    between atoms: _252  and  _253
REMARK  103  A    between atoms: _252  and  _255
REMARK  104  A    between atoms: _255  and  _256
REMARK  105  A    between atoms: _260  and  _261
REMARK  106  A    between atoms: _266  and  _268
REMARK  107  A    between atoms: _268  and  _269
REMARK  108  A    between atoms: _268  and  _271
REMARK  109  A    between atoms: _271  and  _272
REMARK  110  A    between atoms: _272  and  _273
REMARK  111  A    between atoms: _273  and  _274
REMARK  112  A    between atoms: _274  and  _275
REMARK  113  A    between atoms: _279  and  _281
REMARK  114  A    between atoms: _281  and  _282
REMARK  115  A    between atoms: _281  and  _284
REMARK  116  A    between atoms: _284  and  _285
REMARK  117  A    between atoms: _288  and  _290
REMARK  118  A    between atoms: _290  and  _291
REMARK  119  A    between atoms: _290  and  _293
REMARK  120  A    between atoms: _293  and  _294
REMARK  121  A    between atoms: _299  and  _301
REMARK  122  A    between atoms: _301  and  _302
REMARK  123  A    between atoms: _305  and  _307
REMARK  124  A    between atoms: _307  and  _308
REMARK  125  A    between atoms: _307  and  _310
REMARK  126  A    between atoms: _310  and  _311
REMARK  127  A    between atoms: _316  and  _317
REMARK  128  A    between atoms: _319  and  _321
REMARK  129  A    between atoms: _321  and  _322
REMARK  130  A    between atoms: _321  and  _324
REMARK  131  A    between atoms: _324  and  _325
REMARK  132  A    between atoms: _328  and  _330
REMARK  133  A    between atoms: _330  and  _331
REMARK  134  A    between atoms: _334  and  _336
REMARK  135  A    between atoms: _336  and  _337
REMARK  136  A    between atoms: _336  and  _339
REMARK  137  A    between atoms: _339  and  _340
REMARK  138  A    between atoms: _340  and  _341
REMARK  139  A    between atoms: _341  and  _342
REMARK  140  A    between atoms: _351  and  _353
REMARK  141  A    between atoms: _353  and  _354
REMARK  142  A    between atoms: _353  and  _356
REMARK  143  A    between atoms: _356  and  _357
REMARK  144  A    between atoms: _362  and  _364
REMARK  145  A    between atoms: _364  and  _365
REMARK  146  A    between atoms: _364  and  _367
REMARK  147  A    between atoms: _367  and  _368
REMARK  148  A    between atoms: _374  and  _376
REMARK  149  A    between atoms: _376  and  _377
REMARK  150  A    between atoms: _376  and  _379
REMARK  151  A    between atoms: _379  and  _380
REMARK  152  A    between atoms: _384  and  _385
REMARK  153  A    between atoms: _390  and  _392
REMARK  154  A    between atoms: _392  and  _393
REMARK  155  A    between atoms: _392  and  _395
REMARK  156  A    between atoms: _395  and  _396
REMARK  157  A    between atoms: _399  and  _401
REMARK  158  A    between atoms: _401  and  _402
REMARK  159  A    between atoms: _401  and  _404
REMARK  160  A    between atoms: _407  and  _409
REMARK  161  A    between atoms: _409  and  _410
REMARK  162  A    between atoms: _409  and  _412
REMARK  163  A    between atoms: _412  and  _413
REMARK  164  A    between atoms: _418  and  _420
REMARK  165  A    between atoms: _420  and  _421
REMARK  166  A    between atoms: _420  and  _423
REMARK  167  A    between atoms: _423  and  _424
REMARK  168  A    between atoms: _427  and  _429
REMARK  169  A    between atoms: _429  and  _430
REMARK  170  A    between atoms: _429  and  _432
REMARK  171  A    between atoms: _432  and  _433
REMARK  172  A    between atoms: _435  and  _437
REMARK  173  A    between atoms: _437  and  _438
REMARK  174  A    between atoms: _437  and  _440
REMARK  175  A    between atoms: _440  and  _441
REMARK  176  A    between atoms: _447  and  _449
REMARK  177  A    between atoms: _449  and  _450
REMARK  178  A    between atoms: _449  and  _452
REMARK  179  A    between atoms: _452  and  _453
REMARK  180  A    between atoms: _458  and  _460
REMARK  181  A    between atoms: _460  and  _461
REMARK  182  A    between atoms: _460  and  _463
REMARK  183  A    between atoms: _463  and  _464
REMARK  184  A    between atoms: _467  and  _469
REMARK  185  A    between atoms: _469  and  _470
REMARK  186  A    between atoms: _472  and  _474
REMARK  187  A    between atoms: _474  and  _475
REMARK  188  A    between atoms: _474  and  _477
REMARK  189  A    between atoms: _477  and  _478
REMARK  190  A    between atoms: _478  and  _479
REMARK  191  A    between atoms: _484  and  _486
REMARK  192  A    between atoms: _486  and  _487
REMARK  193  A    between atoms: _490  and  _492
REMARK  194  A    between atoms: _492  and  _493
REMARK  195  A    between atoms: _492  and  _495
REMARK  196  A    between atoms: _495  and  _496
REMARK  197  A    between atoms: _499  and  _501
REMARK  198  A    between atoms: _501  and  _502
REMARK  199  A    between atoms: _505  and  _507
REMARK  200  A    between atoms: _507  and  _508
REMARK  201  A    between atoms: _507  and  _510
REMARK  202  A    between atoms: _510  and  _511
REMARK  203  A    between atoms: _516  and  _518
REMARK  204  A    between atoms: _518  and  _519
REMARK  205  A    between atoms: _518  and  _521
REMARK  206  A    between atoms: _521  and  _522
REMARK  207  A    between atoms: _527  and  _528
REMARK  208  A    between atoms: _530  and  _532
REMARK  209  A    between atoms: _532  and  _533
REMARK  210  A    between atoms: _532  and  _535
REMARK  211  A    between atoms: _535  and  _536
REMARK  212  A    between atoms: _539  and  _541
REMARK  213  A    between atoms: _541  and  _542
REMARK  214  A    between atoms: _541  and  _544
REMARK  215  A    between atoms: _544  and  _545
REMARK  216  A    between atoms: _547  and  _549
REMARK  217  A    between atoms: _549  and  _550
REMARK  218  A    between atoms: _549  and  _552
REMARK  219  A    between atoms: _552  and  _553
REMARK  220  A    between atoms: _559  and  _561
REMARK  221  A    between atoms: _561  and  _562
REMARK  222  A    between atoms: _561  and  _564
REMARK  223  A    between atoms: _564  and  _565
REMARK  224  A    between atoms: _565  and  _566
REMARK  225  A    between atoms: _569  and  _571
REMARK  226  A    between atoms: _571  and  _572
REMARK  227  A    between atoms: _571  and  _574
REMARK  228  A    between atoms: _574  and  _575
REMARK  229  A    between atoms: _575  and  _576
REMARK  230  A    between atoms: _576  and  _577
REMARK  231  A    between atoms: _577  and  _578
REMARK  232  A    between atoms: _582  and  _584
REMARK  233  A    between atoms: _584  and  _585
REMARK  234  A    between atoms: _584  and  _587
REMARK  235  A    between atoms: _587  and  _588
REMARK  236  A    between atoms: _590  and  _592
REMARK  237  A    between atoms: _592  and  _593
REMARK  238  A    between atoms: _592  and  _595
REMARK  239  A    between atoms: _595  and  _596
REMARK  240  A    between atoms: _596  and  _597
REMARK  241  A    between atoms: _597  and  _598
REMARK                            x       y       z     vdW  Elec       q    Type
REMARK                         _______ _______ _______ _____ _____    ______ ____
ROOT
ATOM      1  C   HIS A   2      18.745  18.686  19.648  0.00  0.00    +0.241 C 
ATOM      2  O   HIS A   2      19.915  18.477  19.968  0.00  0.00    -0.273 OA
ATOM      3  N   LEU A   3      18.282  19.879  19.285  0.00  0.00    -0.297 N 
ATOM      4  H   LEU A   3      17.259  20.011  19.151  0.00  0.00    +0.150 HD
ENDROOT
BRANCH   1   5
ATOM      5  CA  HIS A   2      17.747  17.554  19.784  0.00  0.00    +0.155 C 
BRANCH   5   7
ATOM      6  C   VAL A   1      16.614  16.536  17.926  0.00  0.00    +0.238 C 
ATOM      7  N   HIS A   2      17.754  16.820  18.535  0.00  0.00    -0.297 N 
ATOM      8  H   HIS A   2      18.656  16.516  18.116  0.00  0.00    +0.150 HD
ATOM      9  O   VAL A   1      15.507  16.822  18.409  0.00  0.00    -0.274 OA
BRANCH   6  10
ATOM     10  CA  VAL A   1      16.715  15.832  16.573  0.00  0.00    +0.145 C 
BRANCH  10  11
ATOM     11  CB  VAL A   1      16.360  16.844  15.432  0.00  0.00    +0.025 C 
ATOM     12  CG2 VAL A   1      17.335  18.060  15.414  0.00  0.00    +0.002 C 
ATOM     13  CG1 VAL A   1      16.314  16.119  14.090  0.00  0.00    +0.002 C 
ENDBRANCH  10  11
BRANCH  10  14
ATOM     14  N   VAL A   1      15.724  14.758  16.640  0.00  0.00    -0.238 NA
ATOM     15  H   VAL A   1      14.755  14.924  16.301  0.00  0.00    +0.142 HD
ENDBRANCH  10  14
ENDBRANCH   6  10
ENDBRANCH   5   7
BRANCH   5  16
ATOM     16  CB  HIS A   2      18.227  16.601  20.890  0.00  0.00    +0.076 C 
BRANCH  16  17
ATOM     17  CG  HIS A   2      17.265  15.489  21.155  0.00  0.00    +0.082 A 
ATOM     18  ND1 HIS A   2      16.006  15.722  21.662  0.00  0.00    -0.227 NA
ATOM     19  CE1 HIS A   2      15.356  14.576  21.765  0.00  0.00    +0.199 A 
ATOM     20  NE2 HIS A   2      16.151  13.607  21.348  0.00  0.00    -0.221 NA
ATOM     21  CD2 HIS A   2      17.346  14.153  20.933  0.00  0.00    +0.115 A 
ENDBRANCH  16  17
ENDBRANCH   5  16
ENDBRANCH   1   5
BRANCH   3  22
ATOM     22  CA  LEU A   3      19.183  21.002  19.072  0.00  0.00    +0.149 C 
BRANCH  22  23
ATOM     23  C   LEU A   3      19.829  21.424  20.387  0.00  0.00    +0.241 C 
ATOM     24  N   SER A   4      19.182  21.172  21.519  0.00  0.00    -0.296 N 
ATOM     25  H   SER A   4      18.244  20.725  21.485  0.00  0.00    +0.150 HD
ATOM     26  O   LEU A   3      20.916  21.960  20.368  0.00  0.00    -0.273 OA
BRANCH  24  27
ATOM     27  CA  SER A   4      19.780  21.520  22.831  0.00  0.00    +0.166 C 
BRANCH  27  28
ATOM     28  CB  SER A   4      21.055  20.706  23.057  0.00  0.00    +0.229 C 
ATOM     29  OG  SER A   4      21.945  21.214  23.720  0.00  0.00    -0.286 OA
ENDBRANCH  27  28
BRANCH  27  30
ATOM     30  C   SER A   4      18.824  21.288  24.031  0.00  0.00    +0.165 C 
BRANCH  30  31
ATOM     31  O   SER A   4      18.538  19.887  24.088  0.00  0.00    -0.380 OA
ATOM     32  H   SER A   4      19.381  19.384  24.214  0.00  0.00    +0.211 HD
ENDBRANCH  30  31
ENDBRANCH  27  30
ENDBRANCH  24  27
ENDBRANCH  22  23
BRANCH  22  33
ATOM     33  CB  LEU A   3      18.433  22.206  18.467  0.00  0.00    +0.029 C 
BRANCH  33  34
ATOM     34  CG  LEU A   3      17.790  21.945  17.086  0.00  0.00    +0.002 C 
ATOM     35  CD2 LEU A   3      17.099  23.275  16.557  0.00  0.00    +0.000 C 
ATOM     36  CD1 LEU A   3      18.925  21.462  16.141  0.00  0.00    +0.000 C 
ENDBRANCH  33  34
ENDBRANCH  22  33
ENDBRANCH   3  22
TORSDOF 15
REMARK  Name = ../refined-set-2016/3wgg/3wgg_pocket.pdb
REMARK  241 active torsions:
REMARK  status: ('A' for Active; 'I' for Inactive)
REMARK    1  A    between atoms: _1  and  _3
REMARK    2  A    between atoms: _3  and  _4
REMARK    3  A    between atoms: _3  and  _6
REMARK    4  A    between atoms: _6  and  _7
REMARK    5  A    between atoms: _10  and  _12
REMARK    6  A    between atoms: _12  and  _13
REMARK    7  A    between atoms: _12  and  _15
REMARK    8  A    between atoms: _15  and  _16
REMARK    9  A    between atoms: _19  and  _21
REMARK   10  A    between atoms: _21  and  _22
REMARK   11  A    between atoms: _24  and  _26
REMARK   12  A    between atoms: _26  and  _27
REMARK   13  A    between atoms: _30  and  _32
REMARK   14  A    between atoms: _32  and  _33
REMARK   15  A    between atoms: _35  and  _37
REMARK   16  A    between atoms: _37  and  _38
REMARK   17  A    between atoms: _37  and  _40
REMARK   18  A    between atoms: _40  and  _41
REMARK   19  A    between atoms: _46  and  _48
REMARK   20  A    between atoms: _48  and  _49
REMARK   21  A    between atoms: _48  and  _51
REMARK   22  A    between atoms: _51  and  _52
REMARK   23  A    between atoms: _55  and  _57
REMARK   24  A    between atoms: _57  and  _58
REMARK   25  A    between atoms: _60  and  _62
REMARK   26  A    between atoms: _62  and  _63
REMARK   27  A    between atoms: _62  and  _65
REMARK   28  A    between atoms: _65  and  _66
REMARK   29  A    between atoms: _66  and  _67
REMARK   30  A    between atoms: _72  and  _74
REMARK   31  A    between atoms: _74  and  _75
REMARK   32  A    between atoms: _78  and  _80
REMARK   33  A    between atoms: _80  and  _81
REMARK   34  A    between atoms: _80  and  _83
REMARK   35  A    between atoms: _83  and  _84
REMARK   36  A    between atoms: _87  and  _89
REMARK   37  A    between atoms: _89  and  _90
REMARK   38  A    between atoms: _89  and  _92
REMARK   39  A    between atoms: _92  and  _93
REMARK   40  A    between atoms: _96  and  _98
REMARK   41  A    between atoms: _98  and  _99
REMARK   42  A    between atoms: _98  and  _101
REMARK   43  A    between atoms: _101  and  _102
REMARK   44  A    between atoms: _108  and  _110
REMARK   45  A    between atoms: _110  and  _111
REMARK   46  A    between atoms: _110  and  _113
REMARK   47  A    between atoms: _113  and  _114
REMARK   48  A    between atoms: _117  and  _119
REMARK   49  A    between atoms: _119  and  _120
REMARK   50  A    between atoms: _119  and  _122
REMARK   51  A    between atoms: _122  and  _123
REMARK   52  A    between atoms: _126  and  _128
REMARK   53  A    between atoms: _128  and  _129
REMARK   54  A    between atoms: _128  and  _131
REMARK   55  A    between atoms: _131  and  _132
REMARK   56  A    between atoms: _138  and  _139
REMARK   57  A    between atoms: _144  and  _146
REMARK   58  A    between atoms: _146  and  _147
REMARK   59  A    between atoms: _146  and  _149
REMARK   60  A    between atoms: _149  and  _150
REMARK   61  A    between atoms: _150  and  _151
REMARK   62  A    between atoms: _151  and  _152
REMARK   63  A    between atoms: _161  and  _163
REMARK   64  A    between atoms: _163  and  _164
REMARK   65  A    between atoms: _163  and  _166
REMARK   66  A    between atoms: _166  and  _167
REMARK   67  A    between atoms: _170  and  _172
REMARK   68  A    between atoms: _172  and  _173
REMARK   69  A    between atoms: _172  and  _175
REMARK   70  A    between atoms: _175  and  _176
REMARK   71  A    between atoms: _182  and  _184
REMARK   72  A    between atoms: _184  and  _185
REMARK   73  A    between atoms: _184  and  _187
REMARK   74  A    between atoms: _190  and  _192
REMARK   75  A    between atoms: _192  and  _193
REMARK   76  A    between atoms: _192  and  _195
REMARK   77  A    between atoms: _195  and  _196
REMARK   78  A    between atoms: _196  and  _197
REMARK   79  A    between atoms: _199  and  _201
REMARK   80  A    between atoms: _201  and  _202
REMARK   81  A    between atoms: _201  and  _204
REMARK   82  A    between atoms: _204  and  _205
REMARK   83  A    between atoms: _208  and  _210
REMARK   84  A    between atoms: _210  and  _211
REMARK   85  A    between atoms: _210  and  _213
REMARK   86  A    between atoms: _216  and  _218
REMARK   87  A    between atoms: _218  and  _219
REMARK   88  A    between atoms: _218  and  _221
REMARK   89  A    between atoms: _221  and  _222
REMARK   90  A    between atoms: _222  and  _223
REMARK   91  A    between atoms: _226  and  _228
REMARK   92  A    between atoms: _228  and  _229
REMARK   93  A    between atoms: _228  and  _231
REMARK   94  A    between atoms: _234  and  _236
REMARK   95  A    between atoms: _236  and  _237
REMARK   96  A    between atoms: _236  and  _239
REMARK   97  A    between atoms: _239  and  _240
REMARK   98  A    between atoms: _243  and  _245
REMARK   99  A    between atoms: _245  and  _246
REMARK  100  A    between atoms: _245  and  _248
REMARK  101  A    between atoms: _250  and  _252
REMARK  102  A    between atoms: _252  and  _253
REMARK  103  A    between atoms: _252  and  _255
REMARK  104  A    between atoms: _255  and  _256
REMARK  105  A    between atoms: _260  and  _261
REMARK  106  A    between atoms: _266  and  _268
REMARK  107  A    between atoms: _268  and  _269
REMARK  108  A    between atoms: _268  and  _271
REMARK  109  A    between atoms: _271  and  _272
REMARK  110  A    between atoms: _272  and  _273
REMARK  111  A    between atoms: _273  and  _274
REMARK  112  A    between atoms: _274  and  _275
REMARK  113  A    between atoms: _279  and  _281
REMARK  114  A    between atoms: _281  and  _282
REMARK  115  A    between atoms: _281  and  _284
REMARK  116  A    between atoms: _284  and  _285
REMARK  117  A    between atoms: _288  and  _290
REMARK  118  A    between atoms: _290  and  _291
REMARK  119  A    between atoms: _290  and  _293
REMARK  120  A    between atoms: _293  and  _294
REMARK  121  A    between atoms: _299  and  _301
REMARK  122  A    between atoms: _301  and  _302
REMARK  123  A    between atoms: _305  and  _307
REMARK  124  A    between atoms: _307  and  _308
REMARK  125  A    between atoms: _307  and  _310
REMARK  126  A    between atoms: _310  and  _311
REMARK  127  A    between atoms: _316  and  _317
REMARK  128  A    between atoms: _319  and  _321
REMARK  129  A    between atoms: _321  and  _322
REMARK  130  A    between atoms: _321  and  _324
REMARK  131  A    between atoms: _324  and  _325
REMARK  132  A    between atoms: _328  and  _330
REMARK  133  A    between atoms: _330  and  _331
REMARK  134  A    between atoms: _334  and  _336
REMARK  135  A    between atoms: _336  and  _337
REMARK  136  A    between atoms: _336  and  _339
REMARK  137  A    between atoms: _339  and  _340
REMARK  138  A    between atoms: _340  and  _341
REMARK  139  A    between atoms: _341  and  _342
REMARK  140  A    between atoms: _351  and  _353
REMARK  141  A    between atoms: _353  and  _354
REMARK  142  A    between atoms: _353  and  _356
REMARK  143  A    between atoms: _356  and  _357
REMARK  144  A    between atoms: _362  and  _364
REMARK  145  A    between atoms: _364  and  _365
REMARK  146  A    between atoms: _364  and  _367
REMARK  147  A    between atoms: _367  and  _368
REMARK  148  A    between atoms: _374  and  _376
REMARK  149  A    between atoms: _376  and  _377
REMARK  150  A    between atoms: _376  and  _379
REMARK  151  A    between atoms: _379  and  _380
REMARK  152  A    between atoms: _384  and  _385
REMARK  153  A    between atoms: _390  and  _392
REMARK  154  A    between atoms: _392  and  _393
REMARK  155  A    between atoms: _392  and  _395
REMARK  156  A    between atoms: _395  and  _396
REMARK  157  A    between atoms: _399  and  _401
REMARK  158  A    between atoms: _401  and  _402
REMARK  159  A    between atoms: _401  and  _404
REMARK  160  A    between atoms: _407  and  _409
REMARK  161  A    between atoms: _409  and  _410
REMARK  162  A    between atoms: _409  and  _412
REMARK  163  A    between atoms: _412  and  _413
REMARK  164  A    between atoms: _418  and  _420
REMARK  165  A    between atoms: _420  and  _421
REMARK  166  A    between atoms: _420  and  _423
REMARK  167  A    between atoms: _423  and  _424
REMARK  168  A    between atoms: _427  and  _429
REMARK  169  A    between atoms: _429  and  _430
REMARK  170  A    between atoms: _429  and  _432
REMARK  171  A    between atoms: _432  and  _433
REMARK  172  A    between atoms: _435  and  _437
REMARK  173  A    between atoms: _437  and  _438
REMARK  174  A    between atoms: _437  and  _440
REMARK  175  A    between atoms: _440  and  _441
REMARK  176  A    between atoms: _447  and  _449
REMARK  177  A    between atoms: _449  and  _450
REMARK  178  A    between atoms: _449  and  _452
REMARK  179  A    between atoms: _452  and  _453
REMARK  180  A    between atoms: _458  and  _460
REMARK  181  A    between atoms: _460  and  _461
REMARK  182  A    between atoms: _460  and  _463
REMARK  183  A    between atoms: _463  and  _464
REMARK  184  A    between atoms: _467  and  _469
REMARK  185  A    between atoms: _469  and  _470
REMARK  186  A    between atoms: _472  and  _474
REMARK  187  A    between atoms: _474  and  _475
REMARK  188  A    between atoms: _474  and  _477
REMARK  189  A    between atoms: _477  and  _478
REMARK  190  A    between atoms: _478  and  _479
REMARK  191  A    between atoms: _484  and  _486
REMARK  192  A    between atoms: _486  and  _487
REMARK  193  A    between atoms: _490  and  _492
REMARK  194  A    between atoms: _492  and  _493
REMARK  195  A    between atoms: _492  and  _495
REMARK  196  A    between atoms: _495  and  _496
REMARK  197  A    between atoms: _499  and  _501
REMARK  198  A    between atoms: _501  and  _502
REMARK  199  A    between atoms: _505  and  _507
REMARK  200  A    between atoms: _507  and  _508
REMARK  201  A    between atoms: _507  and  _510
REMARK  202  A    between atoms: _510  and  _511
REMARK  203  A    between atoms: _516  and  _518
REMARK  204  A    between atoms: _518  and  _519
REMARK  205  A    between atoms: _518  and  _521
REMARK  206  A    between atoms: _521  and  _522
REMARK  207  A    between atoms: _527  and  _528
REMARK  208  A    between atoms: _530  and  _532
REMARK  209  A    between atoms: _532  and  _533
REMARK  210  A    between atoms: _532  and  _535
REMARK  211  A    between atoms: _535  and  _536
REMARK  212  A    between atoms: _539  and  _541
REMARK  213  A    between atoms: _541  and  _542
REMARK  214  A    between atoms: _541  and  _544
REMARK  215  A    between atoms: _544  and  _545
REMARK  216  A    between atoms: _547  and  _549
REMARK  217  A    between atoms: _549  and  _550
REMARK  218  A    between atoms: _549  and  _552
REMARK  219  A    between atoms: _552  and  _553
REMARK  220  A    between atoms: _559  and  _561
REMARK  221  A    between atoms: _561  and  _562
REMARK  222  A    between atoms: _561  and  _564
REMARK  223  A    between atoms: _564  and  _565
REMARK  224  A    between atoms: _565  and  _566
REMARK  225  A    between atoms: _569  and  _571
REMARK  226  A    between atoms: _571  and  _572
REMARK  227  A    between atoms: _571  and  _574
REMARK  228  A    between atoms: _574  and  _575
REMARK  229  A    between atoms: _575  and  _576
REMARK  230  A    between atoms: _576  and  _577
REMARK  231  A    between atoms: _577  and  _578
REMARK  232  A    between atoms: _582  and  _584
REMARK  233  A    between atoms: _584  and  _585
REMARK  234  A    between atoms: _584  and  _587
REMARK  235  A    between atoms: _587  and  _588
REMARK  236  A    between atoms: _590  and  _592
REMARK  237  A    between atoms: _592  and  _593
REMARK  238  A    between atoms: _592  and  _595
REMARK  239  A    between atoms: _595  and  _596
REMARK  240  A    between atoms: _596  and  _597
REMARK  241  A    between atoms: _597  and  _598
REMARK                            x       y       z     vdW  Elec       q    Type
REMARK                         _______ _______ _______ _____ _____    ______ ____
ROOT
ATOM      1  CB  PHE A   1      23.548  22.049  26.327  0.00  0.00    +0.051 C 
ENDROOT
BRANCH   1   2
ATOM      2  CG  PHE A   1      22.122  22.353  26.625  0.00  0.00    -0.020 A 
ATOM      3  CD2 PHE A   1      21.310  21.389  27.227  0.00  0.00    -0.004 A 
ATOM      4  CE2 PHE A   1      19.992  21.688  27.595  0.00  0.00    -0.000 A 
ATOM      5  CZ  PHE A   1      19.452  22.933  27.325  0.00  0.00    -0.000 A 
ATOM      6  CE1 PHE A   1      20.246  23.896  26.734  0.00  0.00    -0.000 A 
ATOM      7  CD1 PHE A   1      21.603  23.606  26.413  0.00  0.00    -0.004 A 
ENDBRANCH   1   2
BRANCH   1   8
ATOM      8  CA  PHE A   1      24.298  23.181  25.602  0.00  0.00    +0.137 C 
BRANCH   8   9
ATOM      9  N   PHE A   1      23.815  23.299  24.213  0.00  0.00    -0.239 NA
ATOM     10  H   PHE A   1      23.237  22.539  23.800  0.00  0.00    +0.142 HD
ENDBRANCH   8   9
BRANCH   8  11
ATOM     11  C   PHE A   1      25.828  22.913  25.627  0.00  0.00    +0.224 C 
ATOM     12  O   PHE A   1      26.459  23.087  26.669  0.00  0.00    -0.287 OA
ENDBRANCH   8  11
ENDBRANCH   1   8
TORSDOF 4
REMARK  Name = ../refined-set-2016/3wgg/3wgg_pocket.pdb
REMARK  241 active torsions:
REMARK  status: ('A' for Active; 'I' for Inactive)
REMARK    1  A    between atoms: _1  and  _3
REMARK    2  A    between atoms: _3  and  _4
REMARK    3  A    between atoms: _3  and  _6
REMARK    4  A    between atoms: _6  and  _7
REMARK    5  A    between atoms: _10  and  _12
REMARK    6  A    between atoms: _12  and  _13
REMARK    7  A    between atoms: _12  and  _15
REMARK    8  A    between atoms: _15  and  _16
REMARK    9  A    between atoms: _19  and  _21
REMARK   10  A    between atoms: _21  and  _22
REMARK   11  A    between atoms: _24  and  _26
REMARK   12  A    between atoms: _26  and  _27
REMARK   13  A    between atoms: _30  and  _32
REMARK   14  A    between atoms: _32  and  _33
REMARK   15  A    between atoms: _35  and  _37
REMARK   16  A    between atoms: _37  and  _38
REMARK   17  A    between atoms: _37  and  _40
REMARK   18  A    between atoms: _40  and  _41
REMARK   19  A    between atoms: _46  and  _48
REMARK   20  A    between atoms: _48  and  _49
REMARK   21  A    between atoms: _48  and  _51
REMARK   22  A    between atoms: _51  and  _52
REMARK   23  A    between atoms: _55  and  _57
REMARK   24  A    between atoms: _57  and  _58
REMARK   25  A    between atoms: _60  and  _62
REMARK   26  A    between atoms: _62  and  _63
REMARK   27  A    between atoms: _62  and  _65
REMARK   28  A    between atoms: _65  and  _66
REMARK   29  A    between atoms: _66  and  _67
REMARK   30  A    between atoms: _72  and  _74
REMARK   31  A    between atoms: _74  and  _75
REMARK   32  A    between atoms: _78  and  _80
REMARK   33  A    between atoms: _80  and  _81
REMARK   34  A    between atoms: _80  and  _83
REMARK   35  A    between atoms: _83  and  _84
REMARK   36  A    between atoms: _87  and  _89
REMARK   37  A    between atoms: _89  and  _90
REMARK   38  A    between atoms: _89  and  _92
REMARK   39  A    between atoms: _92  and  _93
REMARK   40  A    between atoms: _96  and  _98
REMARK   41  A    between atoms: _98  and  _99
REMARK   42  A    between atoms: _98  and  _101
REMARK   43  A    between atoms: _101  and  _102
REMARK   44  A    between atoms: _108  and  _110
REMARK   45  A    between atoms: _110  and  _111
REMARK   46  A    between atoms: _110  and  _113
REMARK   47  A    between atoms: _113  and  _114
REMARK   48  A    between atoms: _117  and  _119
REMARK   49  A    between atoms: _119  and  _120
REMARK   50  A    between atoms: _119  and  _122
REMARK   51  A    between atoms: _122  and  _123
REMARK   52  A    between atoms: _126  and  _128
REMARK   53  A    between atoms: _128  and  _129
REMARK   54  A    between atoms: _128  and  _131
REMARK   55  A    between atoms: _131  and  _132
REMARK   56  A    between atoms: _138  and  _139
REMARK   57  A    between atoms: _144  and  _146
REMARK   58  A    between atoms: _146  and  _147
REMARK   59  A    between atoms: _146  and  _149
REMARK   60  A    between atoms: _149  and  _150
REMARK   61  A    between atoms: _150  and  _151
REMARK   62  A    between atoms: _151  and  _152
REMARK   63  A    between atoms: _161  and  _163
REMARK   64  A    between atoms: _163  and  _164
REMARK   65  A    between atoms: _163  and  _166
REMARK   66  A    between atoms: _166  and  _167
REMARK   67  A    between atoms: _170  and  _172
REMARK   68  A    between atoms: _172  and  _173
REMARK   69  A    between atoms: _172  and  _175
REMARK   70  A    between atoms: _175  and  _176
REMARK   71  A    between atoms: _182  and  _184
REMARK   72  A    between atoms: _184  and  _185
REMARK   73  A    between atoms: _184  and  _187
REMARK   74  A    between atoms: _190  and  _192
REMARK   75  A    between atoms: _192  and  _193
REMARK   76  A    between atoms: _192  and  _195
REMARK   77  A    between atoms: _195  and  _196
REMARK   78  A    between atoms: _196  and  _197
REMARK   79  A    between atoms: _199  and  _201
REMARK   80  A    between atoms: _201  and  _202
REMARK   81  A    between atoms: _201  and  _204
REMARK   82  A    between atoms: _204  and  _205
REMARK   83  A    between atoms: _208  and  _210
REMARK   84  A    between atoms: _210  and  _211
REMARK   85  A    between atoms: _210  and  _213
REMARK   86  A    between atoms: _216  and  _218
REMARK   87  A    between atoms: _218  and  _219
REMARK   88  A    between atoms: _218  and  _221
REMARK   89  A    between atoms: _221  and  _222
REMARK   90  A    between atoms: _222  and  _223
REMARK   91  A    between atoms: _226  and  _228
REMARK   92  A    between atoms: _228  and  _229
REMARK   93  A    between atoms: _228  and  _231
REMARK   94  A    between atoms: _234  and  _236
REMARK   95  A    between atoms: _236  and  _237
REMARK   96  A    between atoms: _236  and  _239
REMARK   97  A    between atoms: _239  and  _240
REMARK   98  A    between atoms: _243  and  _245
REMARK   99  A    between atoms: _245  and  _246
REMARK  100  A    between atoms: _245  and  _248
REMARK  101  A    between atoms: _250  and  _252
REMARK  102  A    between atoms: _252  and  _253
REMARK  103  A    between atoms: _252  and  _255
REMARK  104  A    between atoms: _255  and  _256
REMARK  105  A    between atoms: _260  and  _261
REMARK  106  A    between atoms: _266  and  _268
REMARK  107  A    between atoms: _268  and  _269
REMARK  108  A    between atoms: _268  and  _271
REMARK  109  A    between atoms: _271  and  _272
REMARK  110  A    between atoms: _272  and  _273
REMARK  111  A    between atoms: _273  and  _274
REMARK  112  A    between atoms: _274  and  _275
REMARK  113  A    between atoms: _279  and  _281
REMARK  114  A    between atoms: _281  and  _282
REMARK  115  A    between atoms: _281  and  _284
REMARK  116  A    between atoms: _284  and  _285
REMARK  117  A    between atoms: _288  and  _290
REMARK  118  A    between atoms: _290  and  _291
REMARK  119  A    between atoms: _290  and  _293
REMARK  120  A    between atoms: _293  and  _294
REMARK  121  A    between atoms: _299  and  _301
REMARK  122  A    between atoms: _301  and  _302
REMARK  123  A    between atoms: _305  and  _307
REMARK  124  A    between atoms: _307  and  _308
REMARK  125  A    between atoms: _307  and  _310
REMARK  126  A    between atoms: _310  and  _311
REMARK  127  A    between atoms: _316  and  _317
REMARK  128  A    between atoms: _319  and  _321
REMARK  129  A    between atoms: _321  and  _322
REMARK  130  A    between atoms: _321  and  _324
REMARK  131  A    between atoms: _324  and  _325
REMARK  132  A    between atoms: _328  and  _330
REMARK  133  A    between atoms: _330  and  _331
REMARK  134  A    between atoms: _334  and  _336
REMARK  135  A    between atoms: _336  and  _337
REMARK  136  A    between atoms: _336  and  _339
REMARK  137  A    between atoms: _339  and  _340
REMARK  138  A    between atoms: _340  and  _341
REMARK  139  A    between atoms: _341  and  _342
REMARK  140  A    between atoms: _351  and  _353
REMARK  141  A    between atoms: _353  and  _354
REMARK  142  A    between atoms: _353  and  _356
REMARK  143  A    between atoms: _356  and  _357
REMARK  144  A    between atoms: _362  and  _364
REMARK  145  A    between atoms: _364  and  _365
REMARK  146  A    between atoms: _364  and  _367
REMARK  147  A    between atoms: _367  and  _368
REMARK  148  A    between atoms: _374  and  _376
REMARK  149  A    between atoms: _376  and  _377
REMARK  150  A    between atoms: _376  and  _379
REMARK  151  A    between atoms: _379  and  _380
REMARK  152  A    between atoms: _384  and  _385
REMARK  153  A    between atoms: _390  and  _392
REMARK  154  A    between atoms: _392  and  _393
REMARK  155  A    between atoms: _392  and  _395
REMARK  156  A    between atoms: _395  and  _396
REMARK  157  A    between atoms: _399  and  _401
REMARK  158  A    between atoms: _401  and  _402
REMARK  159  A    between atoms: _401  and  _404
REMARK  160  A    between atoms: _407  and  _409
REMARK  161  A    between atoms: _409  and  _410
REMARK  162  A    between atoms: _409  and  _412
REMARK  163  A    between atoms: _412  and  _413
REMARK  164  A    between atoms: _418  and  _420
REMARK  165  A    between atoms: _420  and  _421
REMARK  166  A    between atoms: _420  and  _423
REMARK  167  A    between atoms: _423  and  _424
REMARK  168  A    between atoms: _427  and  _429
REMARK  169  A    between atoms: _429  and  _430
REMARK  170  A    between atoms: _429  and  _432
REMARK  171  A    between atoms: _432  and  _433
REMARK  172  A    between atoms: _435  and  _437
REMARK  173  A    between atoms: _437  and  _438
REMARK  174  A    between atoms: _437  and  _440
REMARK  175  A    between atoms: _440  and  _441
REMARK  176  A    between atoms: _447  and  _449
REMARK  177  A    between atoms: _449  and  _450
REMARK  178  A    between atoms: _449  and  _452
REMARK  179  A    between atoms: _452  and  _453
REMARK  180  A    between atoms: _458  and  _460
REMARK  181  A    between atoms: _460  and  _461
REMARK  182  A    between atoms: _460  and  _463
REMARK  183  A    between atoms: _463  and  _464
REMARK  184  A    between atoms: _467  and  _469
REMARK  185  A    between atoms: _469  and  _470
REMARK  186  A    between atoms: _472  and  _474
REMARK  187  A    between atoms: _474  and  _475
REMARK  188  A    between atoms: _474  and  _477
REMARK  189  A    between atoms: _477  and  _478
REMARK  190  A    between atoms: _478  and  _479
REMARK  191  A    between atoms: _484  and  _486
REMARK  192  A    between atoms: _486  and  _487
REMARK  193  A    between atoms: _490  and  _492
REMARK  194  A    between atoms: _492  and  _493
REMARK  195  A    between atoms: _492  and  _495
REMARK  196  A    between atoms: _495  and  _496
REMARK  197  A    between atoms: _499  and  _501
REMARK  198  A    between atoms: _501  and  _502
REMARK  199  A    between atoms: _505  and  _507
REMARK  200  A    between atoms: _507  and  _508
REMARK  201  A    between atoms: _507  and  _510
REMARK  202  A    between atoms: _510  and  _511
REMARK  203  A    between atoms: _516  and  _518
REMARK  204  A    between atoms: _518  and  _519
REMARK  205  A    between atoms: _518  and  _521
REMARK  206  A    between atoms: _521  and  _522
REMARK  207  A    between atoms: _527  and  _528
REMARK  208  A    between atoms: _530  and  _532
REMARK  209  A    between atoms: _532  and  _533
REMARK  210  A    between atoms: _532  and  _535
REMARK  211  A    between atoms: _535  and  _536
REMARK  212  A    between atoms: _539  and  _541
REMARK  213  A    between atoms: _541  and  _542
REMARK  214  A    between atoms: _541  and  _544
REMARK  215  A    between atoms: _544  and  _545
REMARK  216  A    between atoms: _547  and  _549
REMARK  217  A    between atoms: _549  and  _550
REMARK  218  A    between atoms: _549  and  _552
REMARK  219  A    between atoms: _552  and  _553
REMARK  220  A    between atoms: _559  and  _561
REMARK  221  A    between atoms: _561  and  _562
REMARK  222  A    between atoms: _561  and  _564
REMARK  223  A    between atoms: _564  and  _565
REMARK  224  A    between atoms: _565  and  _566
REMARK  225  A    between atoms: _569  and  _571
REMARK  226  A    between atoms: _571  and  _572
REMARK  227  A    between atoms: _571  and  _574
REMARK  228  A    between atoms: _574  and  _575
REMARK  229  A    between atoms: _575  and  _576
REMARK  230  A    between atoms: _576  and  _577
REMARK  231  A    between atoms: _577  and  _578
REMARK  232  A    between atoms: _582  and  _584
REMARK  233  A    between atoms: _584  and  _585
REMARK  234  A    between atoms: _584  and  _587
REMARK  235  A    between atoms: _587  and  _588
REMARK  236  A    between atoms: _590  and  _592
REMARK  237  A    between atoms: _592  and  _593
REMARK  238  A    between atoms: _592  and  _595
REMARK  239  A    between atoms: _595  and  _596
REMARK  240  A    between atoms: _596  and  _597
REMARK  241  A    between atoms: _597  and  _598
REMARK                            x       y       z     vdW  Elec       q    Type
REMARK                         _______ _______ _______ _____ _____    ______ ____
ROOT
ATOM      1  CA  TYR A   9      12.639  27.219  20.742  0.00  0.00    +0.153 C 
ENDROOT
BRANCH   1   2
ATOM      2  C   TYR A   9      12.603  27.789  22.159  0.00  0.00    +0.241 C 
ATOM      3  O   TYR A   9      13.640  28.142  22.744  0.00  0.00    -0.273 OA
ATOM      4  N   THR A  10      11.396  27.940  22.706  0.00  0.00    -0.295 N 
ATOM      5  H   THR A  10      10.563  27.519  22.248  0.00  0.00    +0.150 HD
BRANCH   4   6
ATOM      6  CA  THR A  10      11.243  28.689  23.938  0.00  0.00    +0.176 C 
BRANCH   6   7
ATOM      7  C   THR A  10      11.794  27.930  25.145  0.00  0.00    +0.243 C 
ATOM      8  O   THR A  10      12.123  28.527  26.162  0.00  0.00    -0.273 OA
ATOM      9  N   SER A  11      11.931  26.614  25.048  0.00  0.00    -0.295 N 
ATOM     10  H   SER A  11      11.621  26.108  24.194  0.00  0.00    +0.150 HD
BRANCH   9  11
ATOM     11  CA  SER A  11      12.533  25.888  26.179  0.00  0.00    +0.178 C 
BRANCH  11  12
ATOM     12  C   SER A  11      13.914  26.469  26.520  0.00  0.00    +0.243 C 
ATOM     13  O   SER A  11      14.298  26.520  27.673  0.00  0.00    -0.273 OA
ATOM     14  N   PHE A  12      14.657  26.969  25.540  0.00  0.00    -0.297 N 
ATOM     15  H   PHE A  12      14.294  26.995  24.566  0.00  0.00    +0.150 HD
BRANCH  14  16
ATOM     16  CA  PHE A  12      16.009  27.490  25.849  0.00  0.00    +0.153 C 
BRANCH  16  17
ATOM     17  C   PHE A  12      16.020  28.604  26.904  0.00  0.00    +0.241 C 
ATOM     18  O   PHE A  12      16.973  28.681  27.679  0.00  0.00    -0.273 OA
ATOM     19  N   GLU A  13      14.974  29.444  26.952  0.00  0.00    -0.297 N 
ATOM     20  H   GLU A  13      14.221  29.374  26.238  0.00  0.00    +0.150 HD
BRANCH  19  21
ATOM     21  CA  GLU A  13      14.886  30.477  28.023  0.00  0.00    +0.149 C 
BRANCH  21  22
ATOM     22  C   GLU A  13      15.017  29.916  29.446  0.00  0.00    +0.241 C 
ATOM     23  O   GLU A  13      15.777  30.471  30.262  0.00  0.00    -0.273 OA
ATOM     24  N   LYS A  14      14.359  28.784  29.721  0.00  0.00    -0.297 N 
ATOM     25  H   LYS A  14      13.741  28.374  28.992  0.00  0.00    +0.150 HD
BRANCH  24  26
ATOM     26  CA  LYS A  14      14.478  28.095  31.024  0.00  0.00    +0.149 C 
BRANCH  26  27
ATOM     27  C   LYS A  14      15.898  27.605  31.316  0.00  0.00    +0.241 C 
ATOM     28  O   LYS A  14      16.290  27.444  32.482  0.00  0.00    -0.273 OA
ATOM     29  N   SER A  15      16.696  27.390  30.270  0.00  0.00    -0.296 N 
ATOM     30  H   SER A  15      16.342  27.510  29.300  0.00  0.00    +0.150 HD
BRANCH  29  31
ATOM     31  CA  SER A  15      18.076  26.983  30.512  0.00  0.00    +0.166 C 
BRANCH  31  32
ATOM     32  CB  SER A  15      19.048  28.165  30.523  0.00  0.00    +0.229 C 
ATOM     33  OG  SER A  15      20.270  27.982  30.538  0.00  0.00    -0.286 OA
ENDBRANCH  31  32
BRANCH  31  34
ATOM     34  C   SER A  15      18.476  25.913  29.505  0.00  0.00    +0.165 C 
BRANCH  34  35
ATOM     35  O   SER A  15      17.498  24.864  29.493  0.00  0.00    -0.380 OA
ATOM     36  H   SER A  15      17.765  24.173  28.836  0.00  0.00    +0.211 HD
ENDBRANCH  34  35
ENDBRANCH  31  34
ENDBRANCH  29  31
ENDBRANCH  26  27
BRANCH  26  37
ATOM     37  CB  LYS A  14      13.501  26.910  31.117  0.00  0.00    +0.029 C 
BRANCH  37  38
ATOM     38  CG  LYS A  14      12.110  27.185  30.469  0.00  0.00    +0.000 C 
BRANCH  38  39
ATOM     39  CD  LYS A  14      11.084  26.064  30.751  0.00  0.00    -0.024 C 
BRANCH  39  40
ATOM     40  CE  LYS A  14      11.087  24.965  29.679  0.00  0.00    -0.086 C 
BRANCH  40  41
ATOM     41  NZ  LYS A  14      12.403  24.252  29.587  0.00  0.00    +0.380 N 
ATOM     42  HZ1 LYS A  14      12.619  23.807  30.502  0.00  0.00    -0.089 HD
ATOM     43  HZ2 LYS A  14      13.150  24.935  29.347  0.00  0.00    -0.089 HD
ATOM     44  HZ3 LYS A  14      12.349  23.521  28.849  0.00  0.00    -0.089 HD
ENDBRANCH  40  41
ENDBRANCH  39  40
ENDBRANCH  38  39
ENDBRANCH  37  38
ENDBRANCH  26  37
ENDBRANCH  24  26
ENDBRANCH  21  22
BRANCH  21  45
ATOM     45  CB  GLU A  13      13.676  31.438  27.888  0.00  0.00    +0.041 C 
BRANCH  45  46
ATOM     46  CG  GLU A  13      13.558  32.199  26.513  0.00  0.00    +0.116 C 
BRANCH  46  47
ATOM     47  CD  GLU A  13      14.062  33.697  26.505  0.00  0.00    +0.365 C 
ATOM     48  OE2 GLU A  13      14.102  34.349  27.582  0.00  0.00    -0.246 OA
ATOM     49  OE1 GLU A  13      14.418  34.224  25.412  0.00  0.00    -0.246 OA
ENDBRANCH  46  47
ENDBRANCH  45  46
ENDBRANCH  21  45
ENDBRANCH  19  21
ENDBRANCH  16  17
BRANCH  16  50
ATOM     50  CB  PHE A  12      16.778  27.921  24.597  0.00  0.00    +0.055 C 
BRANCH  50  51
ATOM     51  CG  PHE A  12      16.949  26.818  23.573  0.00  0.00    -0.020 A 
ATOM     52  CD2 PHE A  12      17.004  25.483  23.955  0.00  0.00    -0.004 A 
ATOM     53  CE2 PHE A  12      17.162  24.451  22.984  0.00  0.00    -0.000 A 
ATOM     54  CZ  PHE A  12      17.322  24.770  21.651  0.00  0.00    -0.000 A 
ATOM     55  CE1 PHE A  12      17.301  26.109  21.278  0.00  0.00    -0.000 A 
ATOM     56  CD1 PHE A  12      17.082  27.119  22.241  0.00  0.00    -0.004 A 
ENDBRANCH  50  51
ENDBRANCH  16  50
ENDBRANCH  14  16
ENDBRANCH  11  12
BRANCH  11  57
ATOM     57  CB  SER A  11      12.596  24.367  25.912  0.00  0.00    +0.166 C 
BRANCH  57  58
ATOM     58  OG  SER A  11      13.748  23.970  25.167  0.00  0.00    -0.380 OA
ATOM     59  H   SER A  11      13.729  22.990  25.030  0.00  0.00    +0.211 HD
ENDBRANCH  57  58
ENDBRANCH  11  57
ENDBRANCH   9  11
ENDBRANCH   6   7
BRANCH   6  60
ATOM     60  CB  THR A  10       9.755  29.056  24.180  0.00  0.00    +0.137 C 
ATOM     61  CG2 THR A  10       9.259  30.073  23.148  0.00  0.00    +0.034 C 
BRANCH  60  62
ATOM     62  OG1 THR A  10       8.969  27.871  24.069  0.00  0.00    -0.382 OA
ATOM     63  HG1 THR A  10       8.016  28.093  24.222  0.00  0.00    +0.210 HD
ENDBRANCH  60  62
ENDBRANCH   6  60
ENDBRANCH   4   6
ENDBRANCH   1   2
BRANCH   1  66
ATOM     64  C   ASN A   8      10.895  28.541  19.702  0.00  0.00    +0.241 C 
ATOM     65  O   ASN A   8      10.049  27.864  20.289  0.00  0.00    -0.273 OA
ATOM     66  N   TYR A   9      12.191  28.232  19.760  0.00  0.00    -0.297 N 
ATOM     67  H   TYR A   9      12.874  28.694  19.127  0.00  0.00    +0.150 HD
BRANCH  64  68
ATOM     68  CA  ASN A   8      10.447  29.757  18.865  0.00  0.00    +0.158 C 
BRANCH  68  71
ATOM     69  C   ALA A   7      12.195  31.463  18.898  0.00  0.00    +0.241 C 
ATOM     70  O   ALA A   7      11.917  31.810  20.036  0.00  0.00    -0.273 OA
ATOM     71  N   ASN A   8      11.514  30.526  18.244  0.00  0.00    -0.297 N 
ATOM     72  H   ASN A   8      11.754  30.336  17.250  0.00  0.00    +0.150 HD
BRANCH  69  73
ATOM     73  CA  ALA A   7      13.333  32.122  18.116  0.00  0.00    +0.149 C 
ATOM     74  CB  ALA A   7      12.841  33.365  17.415  0.00  0.00    +0.031 C 
BRANCH  73  77
ATOM     75  C   ILE A   6      14.353  30.028  17.538  0.00  0.00    +0.241 C 
ATOM     76  O   ILE A   6      14.444  29.687  18.746  0.00  0.00    -0.273 OA
ATOM     77  N   ALA A   7      13.794  31.171  17.141  0.00  0.00    -0.297 N 
ATOM     78  H   ALA A   7      13.691  31.375  16.126  0.00  0.00    +0.150 HD
BRANCH  75  79
ATOM     79  CA  ILE A   6      14.748  29.076  16.429  0.00  0.00    +0.149 C 
BRANCH  79  82
ATOM     80  C   ALA A   5      12.560  28.665  15.373  0.00  0.00    +0.241 C 
ATOM     81  O   ALA A   5      12.120  28.206  16.407  0.00  0.00    -0.273 OA
ATOM     82  N   ILE A   6      13.799  29.161  15.304  0.00  0.00    -0.297 N 
ATOM     83  H   ILE A   6      14.105  29.624  14.424  0.00  0.00    +0.150 HD
BRANCH  80  84
ATOM     84  CA  ALA A   5      11.690  28.701  14.108  0.00  0.00    +0.149 C 
ATOM     85  CB  ALA A   5      11.990  27.523  13.151  0.00  0.00    +0.031 C 
BRANCH  84  88
ATOM     86  C   GLN A   4      11.587  31.091  14.156  0.00  0.00    +0.241 C 
ATOM     87  O   GLN A   4      11.161  31.035  15.311  0.00  0.00    -0.273 OA
ATOM     88  N   ALA A   5      11.838  29.991  13.424  0.00  0.00    -0.297 N 
ATOM     89  H   ALA A   5      12.122  30.051  12.425  0.00  0.00    +0.150 HD
BRANCH  86  90
ATOM     90  CA  GLN A   4      11.811  32.445  13.498  0.00  0.00    +0.149 C 
BRANCH  90  93
ATOM     91  C   GLY A   3      14.203  32.339  13.314  0.00  0.00    +0.243 C 
ATOM     92  O   GLY A   3      14.253  32.273  14.531  0.00  0.00    -0.273 OA
ATOM     93  N   GLN A   4      13.042  32.417  12.689  0.00  0.00    -0.297 N 
ATOM     94  H   GLN A   4      12.998  32.458  11.651  0.00  0.00    +0.150 HD
BRANCH  91  95
ATOM     95  CA  GLY A   3      15.459  32.277  12.460  0.00  0.00    +0.176 C 
BRANCH  95  98
ATOM     96  C   LEU A   2      14.938  30.098  11.504  0.00  0.00    +0.241 C 
ATOM     97  O   LEU A   2      14.888  29.603  12.663  0.00  0.00    -0.273 OA
ATOM     98  N   GLY A   3      15.263  31.385  11.291  0.00  0.00    -0.295 N 
ATOM     99  H   GLY A   3      15.375  31.749  10.323  0.00  0.00    +0.150 HD
BRANCH  96 100
ATOM    100  CA  LEU A   2      14.696  29.242  10.257  0.00  0.00    +0.149 C 
BRANCH 100 103
ATOM    101  C   ASN A   1      12.567  30.111   9.544  0.00  0.00    +0.239 C 
ATOM    102  O   ASN A   1      12.083  29.750  10.612  0.00  0.00    -0.274 OA
ATOM    103  N   LEU A   2      13.842  29.938   9.253  0.00  0.00    -0.297 N 
ATOM    104  H   LEU A   2      14.238  30.276   8.353  0.00  0.00    +0.150 HD
BRANCH 101 105
ATOM    105  CA  ASN A   1      11.687  30.734   8.499  0.00  0.00    +0.154 C 
BRANCH 105 106
ATOM    106  N   ASN A   1      12.222  31.917   7.815  0.00  0.00    -0.238 NA
ATOM    107  H   ASN A   1      12.273  31.957   6.777  0.00  0.00    +0.142 HD
ENDBRANCH 105 106
BRANCH 105 108
ATOM    108  CB  ASN A   1      11.268  29.668   7.475  0.00  0.00    +0.111 C 
BRANCH 108 109
ATOM    109  CG  ASN A   1      10.112  30.193   6.609  0.00  0.00    +0.221 C 
ATOM    110  OD1 ASN A   1       9.075  30.611   7.159  0.00  0.00    -0.275 OA
ATOM    111  ND2 ASN A   1      10.299  30.233   5.296  0.00  0.00    -0.329 N 
ATOM    112 HD21 ASN A   1      11.183  29.871   4.885  0.00  0.00    +0.145 HD
ATOM    113 HD22 ASN A   1       9.561  30.626   4.677  0.00  0.00    +0.145 HD
ENDBRANCH 108 109
ENDBRANCH 105 108
ENDBRANCH 101 105
ENDBRANCH 100 103
BRANCH 100 114
ATOM    114  CB  LEU A   2      16.052  28.900   9.640  0.00  0.00    +0.029 C 
BRANCH 114 115
ATOM    115  CG  LEU A   2      17.058  28.166  10.565  0.00  0.00    +0.002 C 
ATOM    116  CD2 LEU A   2      16.502  26.813  10.975  0.00  0.00    +0.000 C 
ATOM    117  CD1 LEU A   2      18.458  28.004   9.895  0.00  0.00    +0.000 C 
ENDBRANCH 114 115
ENDBRANCH 100 114
ENDBRANCH  96 100
ENDBRANCH  95  98
ENDBRANCH  91  95
ENDBRANCH  90  93
BRANCH  90 118
ATOM    118  CB  GLN A   4      10.620  32.794  12.629  0.00  0.00    +0.039 C 
BRANCH 118 119
ATOM    119  CG  GLN A   4      10.684  34.254  12.178  0.00  0.00    +0.087 C 
BRANCH 119 120
ATOM    120  CD  GLN A   4       9.462  34.708  11.369  0.00  0.00    +0.219 C 
ATOM    121  OE1 GLN A   4       8.336  34.427  11.724  0.00  0.00    -0.275 OA
ATOM    122  NE2 GLN A   4       9.707  35.418  10.285  0.00  0.00    -0.329 N 
ATOM    123 HE21 GLN A   4      10.688  35.636  10.017  0.00  0.00    +0.145 HD
ATOM    124 HE22 GLN A   4       8.919  35.760   9.698  0.00  0.00    +0.145 HD
ENDBRANCH 119 120
ENDBRANCH 118 119
ENDBRANCH  90 118
ENDBRANCH  86  90
ENDBRANCH  84  88
ENDBRANCH  80  84
ENDBRANCH  79  82
BRANCH  79 125
ATOM    125  CB  ILE A   6      16.187  29.342  15.961  0.00  0.00    +0.027 C 
ATOM    126  CG2 ILE A   6      17.158  29.481  17.136  0.00  0.00    +0.002 C 
BRANCH 125 127
ATOM    127  CG1 ILE A   6      16.661  28.213  15.031  0.00  0.00    +0.002 C 
ATOM    128  CD1 ILE A   6      16.548  26.749  15.647  0.00  0.00    +0.000 C 
ENDBRANCH 125 127
ENDBRANCH  79 125
ENDBRANCH  75  79
ENDBRANCH  73  77
ENDBRANCH  69  73
ENDBRANCH  68  71
BRANCH  68 129
ATOM    129  CB  ASN A   8       9.438  29.332  17.782  0.00  0.00    +0.114 C 
BRANCH 129 130
ATOM    130  CG  ASN A   8       8.164  28.849  18.353  0.00  0.00    +0.222 C 
ATOM    131  OD1 ASN A   8       7.807  29.214  19.470  0.00  0.00    -0.275 OA
ATOM    132  ND2 ASN A   8       7.448  28.009  17.603  0.00  0.00    -0.329 N 
ATOM    133 HD21 ASN A   8       6.545  27.634  17.959  0.00  0.00    +0.145 HD
ATOM    134 HD22 ASN A   8       7.792  27.729  16.663  0.00  0.00    +0.145 HD
ENDBRANCH 129 130
ENDBRANCH  68 129
ENDBRANCH  64  68
ENDBRANCH   1  66
BRANCH   1 135
ATOM    135  CB  TYR A   9      14.013  26.662  20.393  0.00  0.00    +0.055 C 
BRANCH 135 136
ATOM    136  CG  TYR A   9      13.940  25.478  19.445  0.00  0.00    -0.020 A 
ATOM    137  CD2 TYR A   9      14.503  24.234  19.778  0.00  0.00    -0.001 A 
ATOM    138  CE2 TYR A   9      14.405  23.138  18.874  0.00  0.00    +0.036 A 
ATOM    139  CZ  TYR A   9      13.713  23.320  17.669  0.00  0.00    +0.134 A 
ATOM    140  CE1 TYR A   9      13.156  24.528  17.356  0.00  0.00    +0.036 A 
ATOM    141  CD1 TYR A   9      13.270  25.596  18.238  0.00  0.00    -0.001 A 
BRANCH 139 142
ATOM    142  OH  TYR A   9      13.565  22.311  16.741  0.00  0.00    -0.506 OA
ATOM    143  HH  TYR A   9      14.006  21.490  17.075  0.00  0.00    +0.292 HD
ENDBRANCH 139 142
ENDBRANCH 135 136
ENDBRANCH   1 135
TORSDOF 60
REMARK  Name = ../refined-set-2016/3wgg/3wgg_pocket.pdb
REMARK  241 active torsions:
REMARK  status: ('A' for Active; 'I' for Inactive)
REMARK    1  A    between atoms: _1  and  _3
REMARK    2  A    between atoms: _3  and  _4
REMARK    3  A    between atoms: _3  and  _6
REMARK    4  A    between atoms: _6  and  _7
REMARK    5  A    between atoms: _10  and  _12
REMARK    6  A    between atoms: _12  and  _13
REMARK    7  A    between atoms: _12  and  _15
REMARK    8  A    between atoms: _15  and  _16
REMARK    9  A    between atoms: _19  and  _21
REMARK   10  A    between atoms: _21  and  _22
REMARK   11  A    between atoms: _24  and  _26
REMARK   12  A    between atoms: _26  and  _27
REMARK   13  A    between atoms: _30  and  _32
REMARK   14  A    between atoms: _32  and  _33
REMARK   15  A    between atoms: _35  and  _37
REMARK   16  A    between atoms: _37  and  _38
REMARK   17  A    between atoms: _37  and  _40
REMARK   18  A    between atoms: _40  and  _41
REMARK   19  A    between atoms: _46  and  _48
REMARK   20  A    between atoms: _48  and  _49
REMARK   21  A    between atoms: _48  and  _51
REMARK   22  A    between atoms: _51  and  _52
REMARK   23  A    between atoms: _55  and  _57
REMARK   24  A    between atoms: _57  and  _58
REMARK   25  A    between atoms: _60  and  _62
REMARK   26  A    between atoms: _62  and  _63
REMARK   27  A    between atoms: _62  and  _65
REMARK   28  A    between atoms: _65  and  _66
REMARK   29  A    between atoms: _66  and  _67
REMARK   30  A    between atoms: _72  and  _74
REMARK   31  A    between atoms: _74  and  _75
REMARK   32  A    between atoms: _78  and  _80
REMARK   33  A    between atoms: _80  and  _81
REMARK   34  A    between atoms: _80  and  _83
REMARK   35  A    between atoms: _83  and  _84
REMARK   36  A    between atoms: _87  and  _89
REMARK   37  A    between atoms: _89  and  _90
REMARK   38  A    between atoms: _89  and  _92
REMARK   39  A    between atoms: _92  and  _93
REMARK   40  A    between atoms: _96  and  _98
REMARK   41  A    between atoms: _98  and  _99
REMARK   42  A    between atoms: _98  and  _101
REMARK   43  A    between atoms: _101  and  _102
REMARK   44  A    between atoms: _108  and  _110
REMARK   45  A    between atoms: _110  and  _111
REMARK   46  A    between atoms: _110  and  _113
REMARK   47  A    between atoms: _113  and  _114
REMARK   48  A    between atoms: _117  and  _119
REMARK   49  A    between atoms: _119  and  _120
REMARK   50  A    between atoms: _119  and  _122
REMARK   51  A    between atoms: _122  and  _123
REMARK   52  A    between atoms: _126  and  _128
REMARK   53  A    between atoms: _128  and  _129
REMARK   54  A    between atoms: _128  and  _131
REMARK   55  A    between atoms: _131  and  _132
REMARK   56  A    between atoms: _138  and  _139
REMARK   57  A    between atoms: _144  and  _146
REMARK   58  A    between atoms: _146  and  _147
REMARK   59  A    between atoms: _146  and  _149
REMARK   60  A    between atoms: _149  and  _150
REMARK   61  A    between atoms: _150  and  _151
REMARK   62  A    between atoms: _151  and  _152
REMARK   63  A    between atoms: _161  and  _163
REMARK   64  A    between atoms: _163  and  _164
REMARK   65  A    between atoms: _163  and  _166
REMARK   66  A    between atoms: _166  and  _167
REMARK   67  A    between atoms: _170  and  _172
REMARK   68  A    between atoms: _172  and  _173
REMARK   69  A    between atoms: _172  and  _175
REMARK   70  A    between atoms: _175  and  _176
REMARK   71  A    between atoms: _182  and  _184
REMARK   72  A    between atoms: _184  and  _185
REMARK   73  A    between atoms: _184  and  _187
REMARK   74  A    between atoms: _190  and  _192
REMARK   75  A    between atoms: _192  and  _193
REMARK   76  A    between atoms: _192  and  _195
REMARK   77  A    between atoms: _195  and  _196
REMARK   78  A    between atoms: _196  and  _197
REMARK   79  A    between atoms: _199  and  _201
REMARK   80  A    between atoms: _201  and  _202
REMARK   81  A    between atoms: _201  and  _204
REMARK   82  A    between atoms: _204  and  _205
REMARK   83  A    between atoms: _208  and  _210
REMARK   84  A    between atoms: _210  and  _211
REMARK   85  A    between atoms: _210  and  _213
REMARK   86  A    between atoms: _216  and  _218
REMARK   87  A    between atoms: _218  and  _219
REMARK   88  A    between atoms: _218  and  _221
REMARK   89  A    between atoms: _221  and  _222
REMARK   90  A    between atoms: _222  and  _223
REMARK   91  A    between atoms: _226  and  _228
REMARK   92  A    between atoms: _228  and  _229
REMARK   93  A    between atoms: _228  and  _231
REMARK   94  A    between atoms: _234  and  _236
REMARK   95  A    between atoms: _236  and  _237
REMARK   96  A    between atoms: _236  and  _239
REMARK   97  A    between atoms: _239  and  _240
REMARK   98  A    between atoms: _243  and  _245
REMARK   99  A    between atoms: _245  and  _246
REMARK  100  A    between atoms: _245  and  _248
REMARK  101  A    between atoms: _250  and  _252
REMARK  102  A    between atoms: _252  and  _253
REMARK  103  A    between atoms: _252  and  _255
REMARK  104  A    between atoms: _255  and  _256
REMARK  105  A    between atoms: _260  and  _261
REMARK  106  A    between atoms: _266  and  _268
REMARK  107  A    between atoms: _268  and  _269
REMARK  108  A    between atoms: _268  and  _271
REMARK  109  A    between atoms: _271  and  _272
REMARK  110  A    between atoms: _272  and  _273
REMARK  111  A    between atoms: _273  and  _274
REMARK  112  A    between atoms: _274  and  _275
REMARK  113  A    between atoms: _279  and  _281
REMARK  114  A    between atoms: _281  and  _282
REMARK  115  A    between atoms: _281  and  _284
REMARK  116  A    between atoms: _284  and  _285
REMARK  117  A    between atoms: _288  and  _290
REMARK  118  A    between atoms: _290  and  _291
REMARK  119  A    between atoms: _290  and  _293
REMARK  120  A    between atoms: _293  and  _294
REMARK  121  A    between atoms: _299  and  _301
REMARK  122  A    between atoms: _301  and  _302
REMARK  123  A    between atoms: _305  and  _307
REMARK  124  A    between atoms: _307  and  _308
REMARK  125  A    between atoms: _307  and  _310
REMARK  126  A    between atoms: _310  and  _311
REMARK  127  A    between atoms: _316  and  _317
REMARK  128  A    between atoms: _319  and  _321
REMARK  129  A    between atoms: _321  and  _322
REMARK  130  A    between atoms: _321  and  _324
REMARK  131  A    between atoms: _324  and  _325
REMARK  132  A    between atoms: _328  and  _330
REMARK  133  A    between atoms: _330  and  _331
REMARK  134  A    between atoms: _334  and  _336
REMARK  135  A    between atoms: _336  and  _337
REMARK  136  A    between atoms: _336  and  _339
REMARK  137  A    between atoms: _339  and  _340
REMARK  138  A    between atoms: _340  and  _341
REMARK  139  A    between atoms: _341  and  _342
REMARK  140  A    between atoms: _351  and  _353
REMARK  141  A    between atoms: _353  and  _354
REMARK  142  A    between atoms: _353  and  _356
REMARK  143  A    between atoms: _356  and  _357
REMARK  144  A    between atoms: _362  and  _364
REMARK  145  A    between atoms: _364  and  _365
REMARK  146  A    between atoms: _364  and  _367
REMARK  147  A    between atoms: _367  and  _368
REMARK  148  A    between atoms: _374  and  _376
REMARK  149  A    between atoms: _376  and  _377
REMARK  150  A    between atoms: _376  and  _379
REMARK  151  A    between atoms: _379  and  _380
REMARK  152  A    between atoms: _384  and  _385
REMARK  153  A    between atoms: _390  and  _392
REMARK  154  A    between atoms: _392  and  _393
REMARK  155  A    between atoms: _392  and  _395
REMARK  156  A    between atoms: _395  and  _396
REMARK  157  A    between atoms: _399  and  _401
REMARK  158  A    between atoms: _401  and  _402
REMARK  159  A    between atoms: _401  and  _404
REMARK  160  A    between atoms: _407  and  _409
REMARK  161  A    between atoms: _409  and  _410
REMARK  162  A    between atoms: _409  and  _412
REMARK  163  A    between atoms: _412  and  _413
REMARK  164  A    between atoms: _418  and  _420
REMARK  165  A    between atoms: _420  and  _421
REMARK  166  A    between atoms: _420  and  _423
REMARK  167  A    between atoms: _423  and  _424
REMARK  168  A    between atoms: _427  and  _429
REMARK  169  A    between atoms: _429  and  _430
REMARK  170  A    between atoms: _429  and  _432
REMARK  171  A    between atoms: _432  and  _433
REMARK  172  A    between atoms: _435  and  _437
REMARK  173  A    between atoms: _437  and  _438
REMARK  174  A    between atoms: _437  and  _440
REMARK  175  A    between atoms: _440  and  _441
REMARK  176  A    between atoms: _447  and  _449
REMARK  177  A    between atoms: _449  and  _450
REMARK  178  A    between atoms: _449  and  _452
REMARK  179  A    between atoms: _452  and  _453
REMARK  180  A    between atoms: _458  and  _460
REMARK  181  A    between atoms: _460  and  _461
REMARK  182  A    between atoms: _460  and  _463
REMARK  183  A    between atoms: _463  and  _464
REMARK  184  A    between atoms: _467  and  _469
REMARK  185  A    between atoms: _469  and  _470
REMARK  186  A    between atoms: _472  and  _474
REMARK  187  A    between atoms: _474  and  _475
REMARK  188  A    between atoms: _474  and  _477
REMARK  189  A    between atoms: _477  and  _478
REMARK  190  A    between atoms: _478  and  _479
REMARK  191  A    between atoms: _484  and  _486
REMARK  192  A    between atoms: _486  and  _487
REMARK  193  A    between atoms: _490  and  _492
REMARK  194  A    between atoms: _492  and  _493
REMARK  195  A    between atoms: _492  and  _495
REMARK  196  A    between atoms: _495  and  _496
REMARK  197  A    between atoms: _499  and  _501
REMARK  198  A    between atoms: _501  and  _502
REMARK  199  A    between atoms: _505  and  _507
REMARK  200  A    between atoms: _507  and  _508
REMARK  201  A    between atoms: _507  and  _510
REMARK  202  A    between atoms: _510  and  _511
REMARK  203  A    between atoms: _516  and  _518
REMARK  204  A    between atoms: _518  and  _519
REMARK  205  A    between atoms: _518  and  _521
REMARK  206  A    between atoms: _521  and  _522
REMARK  207  A    between atoms: _527  and  _528
REMARK  208  A    between atoms: _530  and  _532
REMARK  209  A    between atoms: _532  and  _533
REMARK  210  A    between atoms: _532  and  _535
REMARK  211  A    between atoms: _535  and  _536
REMARK  212  A    between atoms: _539  and  _541
REMARK  213  A    between atoms: _541  and  _542
REMARK  214  A    between atoms: _541  and  _544
REMARK  215  A    between atoms: _544  and  _545
REMARK  216  A    between atoms: _547  and  _549
REMARK  217  A    between atoms: _549  and  _550
REMARK  218  A    between atoms: _549  and  _552
REMARK  219  A    between atoms: _552  and  _553
REMARK  220  A    between atoms: _559  and  _561
REMARK  221  A    between atoms: _561  and  _562
REMARK  222  A    between atoms: _561  and  _564
REMARK  223  A    between atoms: _564  and  _565
REMARK  224  A    between atoms: _565  and  _566
REMARK  225  A    between atoms: _569  and  _571
REMARK  226  A    between atoms: _571  and  _572
REMARK  227  A    between atoms: _571  and  _574
REMARK  228  A    between atoms: _574  and  _575
REMARK  229  A    between atoms: _575  and  _576
REMARK  230  A    between atoms: _576  and  _577
REMARK  231  A    between atoms: _577  and  _578
REMARK  232  A    between atoms: _582  and  _584
REMARK  233  A    between atoms: _584  and  _585
REMARK  234  A    between atoms: _584  and  _587
REMARK  235  A    between atoms: _587  and  _588
REMARK  236  A    between atoms: _590  and  _592
REMARK  237  A    between atoms: _592  and  _593
REMARK  238  A    between atoms: _592  and  _595
REMARK  239  A    between atoms: _595  and  _596
REMARK  240  A    between atoms: _596  and  _597
REMARK  241  A    between atoms: _597  and  _598
REMARK                            x       y       z     vdW  Elec       q    Type
REMARK                         _______ _______ _______ _____ _____    ______ ____
ROOT
ATOM      1  NE  ARG A   1       9.012  33.194  18.681  0.00  0.00    -0.265 N 
ATOM      2  HE  ARG A   1       9.789  33.717  18.228  0.00  0.00    +0.259 HD
ATOM      3  CZ  ARG A   1       8.350  32.314  17.933  0.00  0.00    +0.342 C 
ATOM      4  NH2 ARG A   1       7.368  31.619  18.483  0.00  0.00    -0.292 N 
ATOM      5 HH21 ARG A   1       7.125  31.765  19.484  0.00  0.00    +0.255 HD
ATOM      6 HH22 ARG A   1       6.839  30.927  17.915  0.00  0.00    +0.255 HD
ATOM      7  NH1 ARG A   1       8.673  32.143  16.641  0.00  0.00    -0.292 N 
ATOM      8 HH11 ARG A   1       9.444  32.700  16.220  0.00  0.00    +0.255 HD
ATOM      9 HH12 ARG A   1       8.152  31.454  16.062  0.00  0.00    +0.255 HD
ENDROOT
BRANCH   1  10
ATOM     10  CD  ARG A   1       8.737  33.487  20.090  0.00  0.00    +0.174 C 
BRANCH  10  11
ATOM     11  CG  ARG A   1       9.433  34.780  20.483  0.00  0.00    +0.045 C 
BRANCH  11  12
ATOM     12  CB  ARG A   1       8.568  35.677  21.367  0.00  0.00    +0.029 C 
BRANCH  12  13
ATOM     13  CA  ARG A   1       7.673  36.714  20.639  0.00  0.00    +0.133 C 
BRANCH  13  14
ATOM     14  N   ARG A   1       7.910  36.747  19.197  0.00  0.00    -0.239 NA
ATOM     15  H   ARG A   1       7.288  36.198  18.570  0.00  0.00    +0.142 HD
ENDBRANCH  13  14
BRANCH  13  16
ATOM     16  C   ARG A   1       7.930  38.064  21.246  0.00  0.00    +0.224 C 
ATOM     17  O   ARG A   1       7.230  39.035  21.017  0.00  0.00    -0.287 OA
ENDBRANCH  13  16
ENDBRANCH  12  13
ENDBRANCH  11  12
ENDBRANCH  10  11
ENDBRANCH   1  10
TORSDOF 6
REMARK  Name = ../refined-set-2016/3wgg/3wgg_pocket.pdb
REMARK  241 active torsions:
REMARK  status: ('A' for Active; 'I' for Inactive)
REMARK    1  A    between atoms: _1  and  _3
REMARK    2  A    between atoms: _3  and  _4
REMARK    3  A    between atoms: _3  and  _6
REMARK    4  A    between atoms: _6  and  _7
REMARK    5  A    between atoms: _10  and  _12
REMARK    6  A    between atoms: _12  and  _13
REMARK    7  A    between atoms: _12  and  _15
REMARK    8  A    between atoms: _15  and  _16
REMARK    9  A    between atoms: _19  and  _21
REMARK   10  A    between atoms: _21  and  _22
REMARK   11  A    between atoms: _24  and  _26
REMARK   12  A    between atoms: _26  and  _27
REMARK   13  A    between atoms: _30  and  _32
REMARK   14  A    between atoms: _32  and  _33
REMARK   15  A    between atoms: _35  and  _37
REMARK   16  A    between atoms: _37  and  _38
REMARK   17  A    between atoms: _37  and  _40
REMARK   18  A    between atoms: _40  and  _41
REMARK   19  A    between atoms: _46  and  _48
REMARK   20  A    between atoms: _48  and  _49
REMARK   21  A    between atoms: _48  and  _51
REMARK   22  A    between atoms: _51  and  _52
REMARK   23  A    between atoms: _55  and  _57
REMARK   24  A    between atoms: _57  and  _58
REMARK   25  A    between atoms: _60  and  _62
REMARK   26  A    between atoms: _62  and  _63
REMARK   27  A    between atoms: _62  and  _65
REMARK   28  A    between atoms: _65  and  _66
REMARK   29  A    between atoms: _66  and  _67
REMARK   30  A    between atoms: _72  and  _74
REMARK   31  A    between atoms: _74  and  _75
REMARK   32  A    between atoms: _78  and  _80
REMARK   33  A    between atoms: _80  and  _81
REMARK   34  A    between atoms: _80  and  _83
REMARK   35  A    between atoms: _83  and  _84
REMARK   36  A    between atoms: _87  and  _89
REMARK   37  A    between atoms: _89  and  _90
REMARK   38  A    between atoms: _89  and  _92
REMARK   39  A    between atoms: _92  and  _93
REMARK   40  A    between atoms: _96  and  _98
REMARK   41  A    between atoms: _98  and  _99
REMARK   42  A    between atoms: _98  and  _101
REMARK   43  A    between atoms: _101  and  _102
REMARK   44  A    between atoms: _108  and  _110
REMARK   45  A    between atoms: _110  and  _111
REMARK   46  A    between atoms: _110  and  _113
REMARK   47  A    between atoms: _113  and  _114
REMARK   48  A    between atoms: _117  and  _119
REMARK   49  A    between atoms: _119  and  _120
REMARK   50  A    between atoms: _119  and  _122
REMARK   51  A    between atoms: _122  and  _123
REMARK   52  A    between atoms: _126  and  _128
REMARK   53  A    between atoms: _128  and  _129
REMARK   54  A    between atoms: _128  and  _131
REMARK   55  A    between atoms: _131  and  _132
REMARK   56  A    between atoms: _138  and  _139
REMARK   57  A    between atoms: _144  and  _146
REMARK   58  A    between atoms: _146  and  _147
REMARK   59  A    between atoms: _146  and  _149
REMARK   60  A    between atoms: _149  and  _150
REMARK   61  A    between atoms: _150  and  _151
REMARK   62  A    between atoms: _151  and  _152
REMARK   63  A    between atoms: _161  and  _163
REMARK   64  A    between atoms: _163  and  _164
REMARK   65  A    between atoms: _163  and  _166
REMARK   66  A    between atoms: _166  and  _167
REMARK   67  A    between atoms: _170  and  _172
REMARK   68  A    between atoms: _172  and  _173
REMARK   69  A    between atoms: _172  and  _175
REMARK   70  A    between atoms: _175  and  _176
REMARK   71  A    between atoms: _182  and  _184
REMARK   72  A    between atoms: _184  and  _185
REMARK   73  A    between atoms: _184  and  _187
REMARK   74  A    between atoms: _190  and  _192
REMARK   75  A    between atoms: _192  and  _193
REMARK   76  A    between atoms: _192  and  _195
REMARK   77  A    between atoms: _195  and  _196
REMARK   78  A    between atoms: _196  and  _197
REMARK   79  A    between atoms: _199  and  _201
REMARK   80  A    between atoms: _201  and  _202
REMARK   81  A    between atoms: _201  and  _204
REMARK   82  A    between atoms: _204  and  _205
REMARK   83  A    between atoms: _208  and  _210
REMARK   84  A    between atoms: _210  and  _211
REMARK   85  A    between atoms: _210  and  _213
REMARK   86  A    between atoms: _216  and  _218
REMARK   87  A    between atoms: _218  and  _219
REMARK   88  A    between atoms: _218  and  _221
REMARK   89  A    between atoms: _221  and  _222
REMARK   90  A    between atoms: _222  and  _223
REMARK   91  A    between atoms: _226  and  _228
REMARK   92  A    between atoms: _228  and  _229
REMARK   93  A    between atoms: _228  and  _231
REMARK   94  A    between atoms: _234  and  _236
REMARK   95  A    between atoms: _236  and  _237
REMARK   96  A    between atoms: _236  and  _239
REMARK   97  A    between atoms: _239  and  _240
REMARK   98  A    between atoms: _243  and  _245
REMARK   99  A    between atoms: _245  and  _246
REMARK  100  A    between atoms: _245  and  _248
REMARK  101  A    between atoms: _250  and  _252
REMARK  102  A    between atoms: _252  and  _253
REMARK  103  A    between atoms: _252  and  _255
REMARK  104  A    between atoms: _255  and  _256
REMARK  105  A    between atoms: _260  and  _261
REMARK  106  A    between atoms: _266  and  _268
REMARK  107  A    between atoms: _268  and  _269
REMARK  108  A    between atoms: _268  and  _271
REMARK  109  A    between atoms: _271  and  _272
REMARK  110  A    between atoms: _272  and  _273
REMARK  111  A    between atoms: _273  and  _274
REMARK  112  A    between atoms: _274  and  _275
REMARK  113  A    between atoms: _279  and  _281
REMARK  114  A    between atoms: _281  and  _282
REMARK  115  A    between atoms: _281  and  _284
REMARK  116  A    between atoms: _284  and  _285
REMARK  117  A    between atoms: _288  and  _290
REMARK  118  A    between atoms: _290  and  _291
REMARK  119  A    between atoms: _290  and  _293
REMARK  120  A    between atoms: _293  and  _294
REMARK  121  A    between atoms: _299  and  _301
REMARK  122  A    between atoms: _301  and  _302
REMARK  123  A    between atoms: _305  and  _307
REMARK  124  A    between atoms: _307  and  _308
REMARK  125  A    between atoms: _307  and  _310
REMARK  126  A    between atoms: _310  and  _311
REMARK  127  A    between atoms: _316  and  _317
REMARK  128  A    between atoms: _319  and  _321
REMARK  129  A    between atoms: _321  and  _322
REMARK  130  A    between atoms: _321  and  _324
REMARK  131  A    between atoms: _324  and  _325
REMARK  132  A    between atoms: _328  and  _330
REMARK  133  A    between atoms: _330  and  _331
REMARK  134  A    between atoms: _334  and  _336
REMARK  135  A    between atoms: _336  and  _337
REMARK  136  A    between atoms: _336  and  _339
REMARK  137  A    between atoms: _339  and  _340
REMARK  138  A    between atoms: _340  and  _341
REMARK  139  A    between atoms: _341  and  _342
REMARK  140  A    between atoms: _351  and  _353
REMARK  141  A    between atoms: _353  and  _354
REMARK  142  A    between atoms: _353  and  _356
REMARK  143  A    between atoms: _356  and  _357
REMARK  144  A    between atoms: _362  and  _364
REMARK  145  A    between atoms: _364  and  _365
REMARK  146  A    between atoms: _364  and  _367
REMARK  147  A    between atoms: _367  and  _368
REMARK  148  A    between atoms: _374  and  _376
REMARK  149  A    between atoms: _376  and  _377
REMARK  150  A    between atoms: _376  and  _379
REMARK  151  A    between atoms: _379  and  _380
REMARK  152  A    between atoms: _384  and  _385
REMARK  153  A    between atoms: _390  and  _392
REMARK  154  A    between atoms: _392  and  _393
REMARK  155  A    between atoms: _392  and  _395
REMARK  156  A    between atoms: _395  and  _396
REMARK  157  A    between atoms: _399  and  _401
REMARK  158  A    between atoms: _401  and  _402
REMARK  159  A    between atoms: _401  and  _404
REMARK  160  A    between atoms: _407  and  _409
REMARK  161  A    between atoms: _409  and  _410
REMARK  162  A    between atoms: _409  and  _412
REMARK  163  A    between atoms: _412  and  _413
REMARK  164  A    between atoms: _418  and  _420
REMARK  165  A    between atoms: _420  and  _421
REMARK  166  A    between atoms: _420  and  _423
REMARK  167  A    between atoms: _423  and  _424
REMARK  168  A    between atoms: _427  and  _429
REMARK  169  A    between atoms: _429  and  _430
REMARK  170  A    between atoms: _429  and  _432
REMARK  171  A    between atoms: _432  and  _433
REMARK  172  A    between atoms: _435  and  _437
REMARK  173  A    between atoms: _437  and  _438
REMARK  174  A    between atoms: _437  and  _440
REMARK  175  A    between atoms: _440  and  _441
REMARK  176  A    between atoms: _447  and  _449
REMARK  177  A    between atoms: _449  and  _450
REMARK  178  A    between atoms: _449  and  _452
REMARK  179  A    between atoms: _452  and  _453
REMARK  180  A    between atoms: _458  and  _460
REMARK  181  A    between atoms: _460  and  _461
REMARK  182  A    between atoms: _460  and  _463
REMARK  183  A    between atoms: _463  and  _464
REMARK  184  A    between atoms: _467  and  _469
REMARK  185  A    between atoms: _469  and  _470
REMARK  186  A    between atoms: _472  and  _474
REMARK  187  A    between atoms: _474  and  _475
REMARK  188  A    between atoms: _474  and  _477
REMARK  189  A    between atoms: _477  and  _478
REMARK  190  A    between atoms: _478  and  _479
REMARK  191  A    between atoms: _484  and  _486
REMARK  192  A    between atoms: _486  and  _487
REMARK  193  A    between atoms: _490  and  _492
REMARK  194  A    between atoms: _492  and  _493
REMARK  195  A    between atoms: _492  and  _495
REMARK  196  A    between atoms: _495  and  _496
REMARK  197  A    between atoms: _499  and  _501
REMARK  198  A    between atoms: _501  and  _502
REMARK  199  A    between atoms: _505  and  _507
REMARK  200  A    between atoms: _507  and  _508
REMARK  201  A    between atoms: _507  and  _510
REMARK  202  A    between atoms: _510  and  _511
REMARK  203  A    between atoms: _516  and  _518
REMARK  204  A    between atoms: _518  and  _519
REMARK  205  A    between atoms: _518  and  _521
REMARK  206  A    between atoms: _521  and  _522
REMARK  207  A    between atoms: _527  and  _528
REMARK  208  A    between atoms: _530  and  _532
REMARK  209  A    between atoms: _532  and  _533
REMARK  210  A    between atoms: _532  and  _535
REMARK  211  A    between atoms: _535  and  _536
REMARK  212  A    between atoms: _539  and  _541
REMARK  213  A    between atoms: _541  and  _542
REMARK  214  A    between atoms: _541  and  _544
REMARK  215  A    between atoms: _544  and  _545
REMARK  216  A    between atoms: _547  and  _549
REMARK  217  A    between atoms: _549  and  _550
REMARK  218  A    between atoms: _549  and  _552
REMARK  219  A    between atoms: _552  and  _553
REMARK  220  A    between atoms: _559  and  _561
REMARK  221  A    between atoms: _561  and  _562
REMARK  222  A    between atoms: _561  and  _564
REMARK  223  A    between atoms: _564  and  _565
REMARK  224  A    between atoms: _565  and  _566
REMARK  225  A    between atoms: _569  and  _571
REMARK  226  A    between atoms: _571  and  _572
REMARK  227  A    between atoms: _571  and  _574
REMARK  228  A    between atoms: _574  and  _575
REMARK  229  A    between atoms: _575  and  _576
REMARK  230  A    between atoms: _576  and  _577
REMARK  231  A    between atoms: _577  and  _578
REMARK  232  A    between atoms: _582  and  _584
REMARK  233  A    between atoms: _584  and  _585
REMARK  234  A    between atoms: _584  and  _587
REMARK  235  A    between atoms: _587  and  _588
REMARK  236  A    between atoms: _590  and  _592
REMARK  237  A    between atoms: _592  and  _593
REMARK  238  A    between atoms: _592  and  _595
REMARK  239  A    between atoms: _595  and  _596
REMARK  240  A    between atoms: _596  and  _597
REMARK  241  A    between atoms: _597  and  _598
REMARK                            x       y       z     vdW  Elec       q    Type
REMARK                         _______ _______ _______ _____ _____    ______ ____
ROOT
ATOM      1  O   HOH     1      15.152  19.883  18.797  0.00  0.00    +0.000 OA
ENDROOT
TORSDOF 0
REMARK  Name = ../refined-set-2016/3wgg/3wgg_pocket.pdb
REMARK  241 active torsions:
REMARK  status: ('A' for Active; 'I' for Inactive)
REMARK    1  A    between atoms: _1  and  _3
REMARK    2  A    between atoms: _3  and  _4
REMARK    3  A    between atoms: _3  and  _6
REMARK    4  A    between atoms: _6  and  _7
REMARK    5  A    between atoms: _10  and  _12
REMARK    6  A    between atoms: _12  and  _13
REMARK    7  A    between atoms: _12  and  _15
REMARK    8  A    between atoms: _15  and  _16
REMARK    9  A    between atoms: _19  and  _21
REMARK   10  A    between atoms: _21  and  _22
REMARK   11  A    between atoms: _24  and  _26
REMARK   12  A    between atoms: _26  and  _27
REMARK   13  A    between atoms: _30  and  _32
REMARK   14  A    between atoms: _32  and  _33
REMARK   15  A    between atoms: _35  and  _37
REMARK   16  A    between atoms: _37  and  _38
REMARK   17  A    between atoms: _37  and  _40
REMARK   18  A    between atoms: _40  and  _41
REMARK   19  A    between atoms: _46  and  _48
REMARK   20  A    between atoms: _48  and  _49
REMARK   21  A    between atoms: _48  and  _51
REMARK   22  A    between atoms: _51  and  _52
REMARK   23  A    between atoms: _55  and  _57
REMARK   24  A    between atoms: _57  and  _58
REMARK   25  A    between atoms: _60  and  _62
REMARK   26  A    between atoms: _62  and  _63
REMARK   27  A    between atoms: _62  and  _65
REMARK   28  A    between atoms: _65  and  _66
REMARK   29  A    between atoms: _66  and  _67
REMARK   30  A    between atoms: _72  and  _74
REMARK   31  A    between atoms: _74  and  _75
REMARK   32  A    between atoms: _78  and  _80
REMARK   33  A    between atoms: _80  and  _81
REMARK   34  A    between atoms: _80  and  _83
REMARK   35  A    between atoms: _83  and  _84
REMARK   36  A    between atoms: _87  and  _89
REMARK   37  A    between atoms: _89  and  _90
REMARK   38  A    between atoms: _89  and  _92
REMARK   39  A    between atoms: _92  and  _93
REMARK   40  A    between atoms: _96  and  _98
REMARK   41  A    between atoms: _98  and  _99
REMARK   42  A    between atoms: _98  and  _101
REMARK   43  A    between atoms: _101  and  _102
REMARK   44  A    between atoms: _108  and  _110
REMARK   45  A    between atoms: _110  and  _111
REMARK   46  A    between atoms: _110  and  _113
REMARK   47  A    between atoms: _113  and  _114
REMARK   48  A    between atoms: _117  and  _119
REMARK   49  A    between atoms: _119  and  _120
REMARK   50  A    between atoms: _119  and  _122
REMARK   51  A    between atoms: _122  and  _123
REMARK   52  A    between atoms: _126  and  _128
REMARK   53  A    between atoms: _128  and  _129
REMARK   54  A    between atoms: _128  and  _131
REMARK   55  A    between atoms: _131  and  _132
REMARK   56  A    between atoms: _138  and  _139
REMARK   57  A    between atoms: _144  and  _146
REMARK   58  A    between atoms: _146  and  _147
REMARK   59  A    between atoms: _146  and  _149
REMARK   60  A    between atoms: _149  and  _150
REMARK   61  A    between atoms: _150  and  _151
REMARK   62  A    between atoms: _151  and  _152
REMARK   63  A    between atoms: _161  and  _163
REMARK   64  A    between atoms: _163  and  _164
REMARK   65  A    between atoms: _163  and  _166
REMARK   66  A    between atoms: _166  and  _167
REMARK   67  A    between atoms: _170  and  _172
REMARK   68  A    between atoms: _172  and  _173
REMARK   69  A    between atoms: _172  and  _175
REMARK   70  A    between atoms: _175  and  _176
REMARK   71  A    between atoms: _182  and  _184
REMARK   72  A    between atoms: _184  and  _185
REMARK   73  A    between atoms: _184  and  _187
REMARK   74  A    between atoms: _190  and  _192
REMARK   75  A    between atoms: _192  and  _193
REMARK   76  A    between atoms: _192  and  _195
REMARK   77  A    between atoms: _195  and  _196
REMARK   78  A    between atoms: _196  and  _197
REMARK   79  A    between atoms: _199  and  _201
REMARK   80  A    between atoms: _201  and  _202
REMARK   81  A    between atoms: _201  and  _204
REMARK   82  A    between atoms: _204  and  _205
REMARK   83  A    between atoms: _208  and  _210
REMARK   84  A    between atoms: _210  and  _211
REMARK   85  A    between atoms: _210  and  _213
REMARK   86  A    between atoms: _216  and  _218
REMARK   87  A    between atoms: _218  and  _219
REMARK   88  A    between atoms: _218  and  _221
REMARK   89  A    between atoms: _221  and  _222
REMARK   90  A    between atoms: _222  and  _223
REMARK   91  A    between atoms: _226  and  _228
REMARK   92  A    between atoms: _228  and  _229
REMARK   93  A    between atoms: _228  and  _231
REMARK   94  A    between atoms: _234  and  _236
REMARK   95  A    between atoms: _236  and  _237
REMARK   96  A    between atoms: _236  and  _239
REMARK   97  A    between atoms: _239  and  _240
REMARK   98  A    between atoms: _243  and  _245
REMARK   99  A    between atoms: _245  and  _246
REMARK  100  A    between atoms: _245  and  _248
REMARK  101  A    between atoms: _250  and  _252
REMARK  102  A    between atoms: _252  and  _253
REMARK  103  A    between atoms: _252  and  _255
REMARK  104  A    between atoms: _255  and  _256
REMARK  105  A    between atoms: _260  and  _261
REMARK  106  A    between atoms: _266  and  _268
REMARK  107  A    between atoms: _268  and  _269
REMARK  108  A    between atoms: _268  and  _271
REMARK  109  A    between atoms: _271  and  _272
REMARK  110  A    between atoms: _272  and  _273
REMARK  111  A    between atoms: _273  and  _274
REMARK  112  A    between atoms: _274  and  _275
REMARK  113  A    between atoms: _279  and  _281
REMARK  114  A    between atoms: _281  and  _282
REMARK  115  A    between atoms: _281  and  _284
REMARK  116  A    between atoms: _284  and  _285
REMARK  117  A    between atoms: _288  and  _290
REMARK  118  A    between atoms: _290  and  _291
REMARK  119  A    between atoms: _290  and  _293
REMARK  120  A    between atoms: _293  and  _294
REMARK  121  A    between atoms: _299  and  _301
REMARK  122  A    between atoms: _301  and  _302
REMARK  123  A    between atoms: _305  and  _307
REMARK  124  A    between atoms: _307  and  _308
REMARK  125  A    between atoms: _307  and  _310
REMARK  126  A    between atoms: _310  and  _311
REMARK  127  A    between atoms: _316  and  _317
REMARK  128  A    between atoms: _319  and  _321
REMARK  129  A    between atoms: _321  and  _322
REMARK  130  A    between atoms: _321  and  _324
REMARK  131  A    between atoms: _324  and  _325
REMARK  132  A    between atoms: _328  and  _330
REMARK  133  A    between atoms: _330  and  _331
REMARK  134  A    between atoms: _334  and  _336
REMARK  135  A    between atoms: _336  and  _337
REMARK  136  A    between atoms: _336  and  _339
REMARK  137  A    between atoms: _339  and  _340
REMARK  138  A    between atoms: _340  and  _341
REMARK  139  A    between atoms: _341  and  _342
REMARK  140  A    between atoms: _351  and  _353
REMARK  141  A    between atoms: _353  and  _354
REMARK  142  A    between atoms: _353  and  _356
REMARK  143  A    between atoms: _356  and  _357
REMARK  144  A    between atoms: _362  and  _364
REMARK  145  A    between atoms: _364  and  _365
REMARK  146  A    between atoms: _364  and  _367
REMARK  147  A    between atoms: _367  and  _368
REMARK  148  A    between atoms: _374  and  _376
REMARK  149  A    between atoms: _376  and  _377
REMARK  150  A    between atoms: _376  and  _379
REMARK  151  A    between atoms: _379  and  _380
REMARK  152  A    between atoms: _384  and  _385
REMARK  153  A    between atoms: _390  and  _392
REMARK  154  A    between atoms: _392  and  _393
REMARK  155  A    between atoms: _392  and  _395
REMARK  156  A    between atoms: _395  and  _396
REMARK  157  A    between atoms: _399  and  _401
REMARK  158  A    between atoms: _401  and  _402
REMARK  159  A    between atoms: _401  and  _404
REMARK  160  A    between atoms: _407  and  _409
REMARK  161  A    between atoms: _409  and  _410
REMARK  162  A    between atoms: _409  and  _412
REMARK  163  A    between atoms: _412  and  _413
REMARK  164  A    between atoms: _418  and  _420
REMARK  165  A    between atoms: _420  and  _421
REMARK  166  A    between atoms: _420  and  _423
REMARK  167  A    between atoms: _423  and  _424
REMARK  168  A    between atoms: _427  and  _429
REMARK  169  A    between atoms: _429  and  _430
REMARK  170  A    between atoms: _429  and  _432
REMARK  171  A    between atoms: _432  and  _433
REMARK  172  A    between atoms: _435  and  _437
REMARK  173  A    between atoms: _437  and  _438
REMARK  174  A    between atoms: _437  and  _440
REMARK  175  A    between atoms: _440  and  _441
REMARK  176  A    between atoms: _447  and  _449
REMARK  177  A    between atoms: _449  and  _450
REMARK  178  A    between atoms: _449  and  _452
REMARK  179  A    between atoms: _452  and  _453
REMARK  180  A    between atoms: _458  and  _460
REMARK  181  A    between atoms: _460  and  _461
REMARK  182  A    between atoms: _460  and  _463
REMARK  183  A    between atoms: _463  and  _464
REMARK  184  A    between atoms: _467  and  _469
REMARK  185  A    between atoms: _469  and  _470
REMARK  186  A    between atoms: _472  and  _474
REMARK  187  A    between atoms: _474  and  _475
REMARK  188  A    between atoms: _474  and  _477
REMARK  189  A    between atoms: _477  and  _478
REMARK  190  A    between atoms: _478  and  _479
REMARK  191  A    between atoms: _484  and  _486
REMARK  192  A    between atoms: _486  and  _487
REMARK  193  A    between atoms: _490  and  _492
REMARK  194  A    between atoms: _492  and  _493
REMARK  195  A    between atoms: _492  and  _495
REMARK  196  A    between atoms: _495  and  _496
REMARK  197  A    between atoms: _499  and  _501
REMARK  198  A    between atoms: _501  and  _502
REMARK  199  A    between atoms: _505  and  _507
REMARK  200  A    between atoms: _507  and  _508
REMARK  201  A    between atoms: _507  and  _510
REMARK  202  A    between atoms: _510  and  _511
REMARK  203  A    between atoms: _516  and  _518
REMARK  204  A    between atoms: _518  and  _519
REMARK  205  A    between atoms: _518  and  _521
REMARK  206  A    between atoms: _521  and  _522
REMARK  207  A    between atoms: _527  and  _528
REMARK  208  A    between atoms: _530  and  _532
REMARK  209  A    between atoms: _532  and  _533
REMARK  210  A    between atoms: _532  and  _535
REMARK  211  A    between atoms: _535  and  _536
REMARK  212  A    between atoms: _539  and  _541
REMARK  213  A    between atoms: _541  and  _542
REMARK  214  A    between atoms: _541  and  _544
REMARK  215  A    between atoms: _544  and  _545
REMARK  216  A    between atoms: _547  and  _549
REMARK  217  A    between atoms: _549  and  _550
REMARK  218  A    between atoms: _549  and  _552
REMARK  219  A    between atoms: _552  and  _553
REMARK  220  A    between atoms: _559  and  _561
REMARK  221  A    between atoms: _561  and  _562
REMARK  222  A    between atoms: _561  and  _564
REMARK  223  A    between atoms: _564  and  _565
REMARK  224  A    between atoms: _565  and  _566
REMARK  225  A    between atoms: _569  and  _571
REMARK  226  A    between atoms: _571  and  _572
REMARK  227  A    between atoms: _571  and  _574
REMARK  228  A    between atoms: _574  and  _575
REMARK  229  A    between atoms: _575  and  _576
REMARK  230  A    between atoms: _576  and  _577
REMARK  231  A    between atoms: _577  and  _578
REMARK  232  A    between atoms: _582  and  _584
REMARK  233  A    between atoms: _584  and  _585
REMARK  234  A    between atoms: _584  and  _587
REMARK  235  A    between atoms: _587  and  _588
REMARK  236  A    between atoms: _590  and  _592
REMARK  237  A    between atoms: _592  and  _593
REMARK  238  A    between atoms: _592  and  _595
REMARK  239  A    between atoms: _595  and  _596
REMARK  240  A    between atoms: _596  and  _597
REMARK  241  A    between atoms: _597  and  _598
REMARK                            x       y       z     vdW  Elec       q    Type
REMARK                         _______ _______ _______ _____ _____    ______ ____
ROOT
ATOM      1  O   HOH     1       8.411  24.046  23.260  0.00  0.00    +0.000 OA
ENDROOT
TORSDOF 0
REMARK  Name = ../refined-set-2016/3wgg/3wgg_pocket.pdb
REMARK  241 active torsions:
REMARK  status: ('A' for Active; 'I' for Inactive)
REMARK    1  A    between atoms: _1  and  _3
REMARK    2  A    between atoms: _3  and  _4
REMARK    3  A    between atoms: _3  and  _6
REMARK    4  A    between atoms: _6  and  _7
REMARK    5  A    between atoms: _10  and  _12
REMARK    6  A    between atoms: _12  and  _13
REMARK    7  A    between atoms: _12  and  _15
REMARK    8  A    between atoms: _15  and  _16
REMARK    9  A    between atoms: _19  and  _21
REMARK   10  A    between atoms: _21  and  _22
REMARK   11  A    between atoms: _24  and  _26
REMARK   12  A    between atoms: _26  and  _27
REMARK   13  A    between atoms: _30  and  _32
REMARK   14  A    between atoms: _32  and  _33
REMARK   15  A    between atoms: _35  and  _37
REMARK   16  A    between atoms: _37  and  _38
REMARK   17  A    between atoms: _37  and  _40
REMARK   18  A    between atoms: _40  and  _41
REMARK   19  A    between atoms: _46  and  _48
REMARK   20  A    between atoms: _48  and  _49
REMARK   21  A    between atoms: _48  and  _51
REMARK   22  A    between atoms: _51  and  _52
REMARK   23  A    between atoms: _55  and  _57
REMARK   24  A    between atoms: _57  and  _58
REMARK   25  A    between atoms: _60  and  _62
REMARK   26  A    between atoms: _62  and  _63
REMARK   27  A    between atoms: _62  and  _65
REMARK   28  A    between atoms: _65  and  _66
REMARK   29  A    between atoms: _66  and  _67
REMARK   30  A    between atoms: _72  and  _74
REMARK   31  A    between atoms: _74  and  _75
REMARK   32  A    between atoms: _78  and  _80
REMARK   33  A    between atoms: _80  and  _81
REMARK   34  A    between atoms: _80  and  _83
REMARK   35  A    between atoms: _83  and  _84
REMARK   36  A    between atoms: _87  and  _89
REMARK   37  A    between atoms: _89  and  _90
REMARK   38  A    between atoms: _89  and  _92
REMARK   39  A    between atoms: _92  and  _93
REMARK   40  A    between atoms: _96  and  _98
REMARK   41  A    between atoms: _98  and  _99
REMARK   42  A    between atoms: _98  and  _101
REMARK   43  A    between atoms: _101  and  _102
REMARK   44  A    between atoms: _108  and  _110
REMARK   45  A    between atoms: _110  and  _111
REMARK   46  A    between atoms: _110  and  _113
REMARK   47  A    between atoms: _113  and  _114
REMARK   48  A    between atoms: _117  and  _119
REMARK   49  A    between atoms: _119  and  _120
REMARK   50  A    between atoms: _119  and  _122
REMARK   51  A    between atoms: _122  and  _123
REMARK   52  A    between atoms: _126  and  _128
REMARK   53  A    between atoms: _128  and  _129
REMARK   54  A    between atoms: _128  and  _131
REMARK   55  A    between atoms: _131  and  _132
REMARK   56  A    between atoms: _138  and  _139
REMARK   57  A    between atoms: _144  and  _146
REMARK   58  A    between atoms: _146  and  _147
REMARK   59  A    between atoms: _146  and  _149
REMARK   60  A    between atoms: _149  and  _150
REMARK   61  A    between atoms: _150  and  _151
REMARK   62  A    between atoms: _151  and  _152
REMARK   63  A    between atoms: _161  and  _163
REMARK   64  A    between atoms: _163  and  _164
REMARK   65  A    between atoms: _163  and  _166
REMARK   66  A    between atoms: _166  and  _167
REMARK   67  A    between atoms: _170  and  _172
REMARK   68  A    between atoms: _172  and  _173
REMARK   69  A    between atoms: _172  and  _175
REMARK   70  A    between atoms: _175  and  _176
REMARK   71  A    between atoms: _182  and  _184
REMARK   72  A    between atoms: _184  and  _185
REMARK   73  A    between atoms: _184  and  _187
REMARK   74  A    between atoms: _190  and  _192
REMARK   75  A    between atoms: _192  and  _193
REMARK   76  A    between atoms: _192  and  _195
REMARK   77  A    between atoms: _195  and  _196
REMARK   78  A    between atoms: _196  and  _197
REMARK   79  A    between atoms: _199  and  _201
REMARK   80  A    between atoms: _201  and  _202
REMARK   81  A    between atoms: _201  and  _204
REMARK   82  A    between atoms: _204  and  _205
REMARK   83  A    between atoms: _208  and  _210
REMARK   84  A    between atoms: _210  and  _211
REMARK   85  A    between atoms: _210  and  _213
REMARK   86  A    between atoms: _216  and  _218
REMARK   87  A    between atoms: _218  and  _219
REMARK   88  A    between atoms: _218  and  _221
REMARK   89  A    between atoms: _221  and  _222
REMARK   90  A    between atoms: _222  and  _223
REMARK   91  A    between atoms: _226  and  _228
REMARK   92  A    between atoms: _228  and  _229
REMARK   93  A    between atoms: _228  and  _231
REMARK   94  A    between atoms: _234  and  _236
REMARK   95  A    between atoms: _236  and  _237
REMARK   96  A    between atoms: _236  and  _239
REMARK   97  A    between atoms: _239  and  _240
REMARK   98  A    between atoms: _243  and  _245
REMARK   99  A    between atoms: _245  and  _246
REMARK  100  A    between atoms: _245  and  _248
REMARK  101  A    between atoms: _250  and  _252
REMARK  102  A    between atoms: _252  and  _253
REMARK  103  A    between atoms: _252  and  _255
REMARK  104  A    between atoms: _255  and  _256
REMARK  105  A    between atoms: _260  and  _261
REMARK  106  A    between atoms: _266  and  _268
REMARK  107  A    between atoms: _268  and  _269
REMARK  108  A    between atoms: _268  and  _271
REMARK  109  A    between atoms: _271  and  _272
REMARK  110  A    between atoms: _272  and  _273
REMARK  111  A    between atoms: _273  and  _274
REMARK  112  A    between atoms: _274  and  _275
REMARK  113  A    between atoms: _279  and  _281
REMARK  114  A    between atoms: _281  and  _282
REMARK  115  A    between atoms: _281  and  _284
REMARK  116  A    between atoms: _284  and  _285
REMARK  117  A    between atoms: _288  and  _290
REMARK  118  A    between atoms: _290  and  _291
REMARK  119  A    between atoms: _290  and  _293
REMARK  120  A    between atoms: _293  and  _294
REMARK  121  A    between atoms: _299  and  _301
REMARK  122  A    between atoms: _301  and  _302
REMARK  123  A    between atoms: _305  and  _307
REMARK  124  A    between atoms: _307  and  _308
REMARK  125  A    between atoms: _307  and  _310
REMARK  126  A    between atoms: _310  and  _311
REMARK  127  A    between atoms: _316  and  _317
REMARK  128  A    between atoms: _319  and  _321
REMARK  129  A    between atoms: _321  and  _322
REMARK  130  A    between atoms: _321  and  _324
REMARK  131  A    between atoms: _324  and  _325
REMARK  132  A    between atoms: _328  and  _330
REMARK  133  A    between atoms: _330  and  _331
REMARK  134  A    between atoms: _334  and  _336
REMARK  135  A    between atoms: _336  and  _337
REMARK  136  A    between atoms: _336  and  _339
REMARK  137  A    between atoms: _339  and  _340
REMARK  138  A    between atoms: _340  and  _341
REMARK  139  A    between atoms: _341  and  _342
REMARK  140  A    between atoms: _351  and  _353
REMARK  141  A    between atoms: _353  and  _354
REMARK  142  A    between atoms: _353  and  _356
REMARK  143  A    between atoms: _356  and  _357
REMARK  144  A    between atoms: _362  and  _364
REMARK  145  A    between atoms: _364  and  _365
REMARK  146  A    between atoms: _364  and  _367
REMARK  147  A    between atoms: _367  and  _368
REMARK  148  A    between atoms: _374  and  _376
REMARK  149  A    between atoms: _376  and  _377
REMARK  150  A    between atoms: _376  and  _379
REMARK  151  A    between atoms: _379  and  _380
REMARK  152  A    between atoms: _384  and  _385
REMARK  153  A    between atoms: _390  and  _392
REMARK  154  A    between atoms: _392  and  _393
REMARK  155  A    between atoms: _392  and  _395
REMARK  156  A    between atoms: _395  and  _396
REMARK  157  A    between atoms: _399  and  _401
REMARK  158  A    between atoms: _401  and  _402
REMARK  159  A    between atoms: _401  and  _404
REMARK  160  A    between atoms: _407  and  _409
REMARK  161  A    between atoms: _409  and  _410
REMARK  162  A    between atoms: _409  and  _412
REMARK  163  A    between atoms: _412  and  _413
REMARK  164  A    between atoms: _418  and  _420
REMARK  165  A    between atoms: _420  and  _421
REMARK  166  A    between atoms: _420  and  _423
REMARK  167  A    between atoms: _423  and  _424
REMARK  168  A    between atoms: _427  and  _429
REMARK  169  A    between atoms: _429  and  _430
REMARK  170  A    between atoms: _429  and  _432
REMARK  171  A    between atoms: _432  and  _433
REMARK  172  A    between atoms: _435  and  _437
REMARK  173  A    between atoms: _437  and  _438
REMARK  174  A    between atoms: _437  and  _440
REMARK  175  A    between atoms: _440  and  _441
REMARK  176  A    between atoms: _447  and  _449
REMARK  177  A    between atoms: _449  and  _450
REMARK  178  A    between atoms: _449  and  _452
REMARK  179  A    between atoms: _452  and  _453
REMARK  180  A    between atoms: _458  and  _460
REMARK  181  A    between atoms: _460  and  _461
REMARK  182  A    between atoms: _460  and  _463
REMARK  183  A    between atoms: _463  and  _464
REMARK  184  A    between atoms: _467  and  _469
REMARK  185  A    between atoms: _469  and  _470
REMARK  186  A    between atoms: _472  and  _474
REMARK  187  A    between atoms: _474  and  _475
REMARK  188  A    between atoms: _474  and  _477
REMARK  189  A    between atoms: _477  and  _478
REMARK  190  A    between atoms: _478  and  _479
REMARK  191  A    between atoms: _484  and  _486
REMARK  192  A    between atoms: _486  and  _487
REMARK  193  A    between atoms: _490  and  _492
REMARK  194  A    between atoms: _492  and  _493
REMARK  195  A    between atoms: _492  and  _495
REMARK  196  A    between atoms: _495  and  _496
REMARK  197  A    between atoms: _499  and  _501
REMARK  198  A    between atoms: _501  and  _502
REMARK  199  A    between atoms: _505  and  _507
REMARK  200  A    between atoms: _507  and  _508
REMARK  201  A    between atoms: _507  and  _510
REMARK  202  A    between atoms: _510  and  _511
REMARK  203  A    between atoms: _516  and  _518
REMARK  204  A    between atoms: _518  and  _519
REMARK  205  A    between atoms: _518  and  _521
REMARK  206  A    between atoms: _521  and  _522
REMARK  207  A    between atoms: _527  and  _528
REMARK  208  A    between atoms: _530  and  _532
REMARK  209  A    between atoms: _532  and  _533
REMARK  210  A    between atoms: _532  and  _535
REMARK  211  A    between atoms: _535  and  _536
REMARK  212  A    between atoms: _539  and  _541
REMARK  213  A    between atoms: _541  and  _542
REMARK  214  A    between atoms: _541  and  _544
REMARK  215  A    between atoms: _544  and  _545
REMARK  216  A    between atoms: _547  and  _549
REMARK  217  A    between atoms: _549  and  _550
REMARK  218  A    between atoms: _549  and  _552
REMARK  219  A    between atoms: _552  and  _553
REMARK  220  A    between atoms: _559  and  _561
REMARK  221  A    between atoms: _561  and  _562
REMARK  222  A    between atoms: _561  and  _564
REMARK  223  A    between atoms: _564  and  _565
REMARK  224  A    between atoms: _565  and  _566
REMARK  225  A    between atoms: _569  and  _571
REMARK  226  A    between atoms: _571  and  _572
REMARK  227  A    between atoms: _571  and  _574
REMARK  228  A    between atoms: _574  and  _575
REMARK  229  A    between atoms: _575  and  _576
REMARK  230  A    between atoms: _576  and  _577
REMARK  231  A    between atoms: _577  and  _578
REMARK  232  A    between atoms: _582  and  _584
REMARK  233  A    between atoms: _584  and  _585
REMARK  234  A    between atoms: _584  and  _587
REMARK  235  A    between atoms: _587  and  _588
REMARK  236  A    between atoms: _590  and  _592
REMARK  237  A    between atoms: _592  and  _593
REMARK  238  A    between atoms: _592  and  _595
REMARK  239  A    between atoms: _595  and  _596
REMARK  240  A    between atoms: _596  and  _597
REMARK  241  A    between atoms: _597  and  _598
REMARK                            x       y       z     vdW  Elec       q    Type
REMARK                         _______ _______ _______ _____ _____    ______ ____
ROOT
ATOM      1  O   HOH     1       6.348  23.884  11.278  0.00  0.00    +0.000 OA
ENDROOT
TORSDOF 0
REMARK  Name = ../refined-set-2016/3wgg/3wgg_pocket.pdb
REMARK  241 active torsions:
REMARK  status: ('A' for Active; 'I' for Inactive)
REMARK    1  A    between atoms: _1  and  _3
REMARK    2  A    between atoms: _3  and  _4
REMARK    3  A    between atoms: _3  and  _6
REMARK    4  A    between atoms: _6  and  _7
REMARK    5  A    between atoms: _10  and  _12
REMARK    6  A    between atoms: _12  and  _13
REMARK    7  A    between atoms: _12  and  _15
REMARK    8  A    between atoms: _15  and  _16
REMARK    9  A    between atoms: _19  and  _21
REMARK   10  A    between atoms: _21  and  _22
REMARK   11  A    between atoms: _24  and  _26
REMARK   12  A    between atoms: _26  and  _27
REMARK   13  A    between atoms: _30  and  _32
REMARK   14  A    between atoms: _32  and  _33
REMARK   15  A    between atoms: _35  and  _37
REMARK   16  A    between atoms: _37  and  _38
REMARK   17  A    between atoms: _37  and  _40
REMARK   18  A    between atoms: _40  and  _41
REMARK   19  A    between atoms: _46  and  _48
REMARK   20  A    between atoms: _48  and  _49
REMARK   21  A    between atoms: _48  and  _51
REMARK   22  A    between atoms: _51  and  _52
REMARK   23  A    between atoms: _55  and  _57
REMARK   24  A    between atoms: _57  and  _58
REMARK   25  A    between atoms: _60  and  _62
REMARK   26  A    between atoms: _62  and  _63
REMARK   27  A    between atoms: _62  and  _65
REMARK   28  A    between atoms: _65  and  _66
REMARK   29  A    between atoms: _66  and  _67
REMARK   30  A    between atoms: _72  and  _74
REMARK   31  A    between atoms: _74  and  _75
REMARK   32  A    between atoms: _78  and  _80
REMARK   33  A    between atoms: _80  and  _81
REMARK   34  A    between atoms: _80  and  _83
REMARK   35  A    between atoms: _83  and  _84
REMARK   36  A    between atoms: _87  and  _89
REMARK   37  A    between atoms: _89  and  _90
REMARK   38  A    between atoms: _89  and  _92
REMARK   39  A    between atoms: _92  and  _93
REMARK   40  A    between atoms: _96  and  _98
REMARK   41  A    between atoms: _98  and  _99
REMARK   42  A    between atoms: _98  and  _101
REMARK   43  A    between atoms: _101  and  _102
REMARK   44  A    between atoms: _108  and  _110
REMARK   45  A    between atoms: _110  and  _111
REMARK   46  A    between atoms: _110  and  _113
REMARK   47  A    between atoms: _113  and  _114
REMARK   48  A    between atoms: _117  and  _119
REMARK   49  A    between atoms: _119  and  _120
REMARK   50  A    between atoms: _119  and  _122
REMARK   51  A    between atoms: _122  and  _123
REMARK   52  A    between atoms: _126  and  _128
REMARK   53  A    between atoms: _128  and  _129
REMARK   54  A    between atoms: _128  and  _131
REMARK   55  A    between atoms: _131  and  _132
REMARK   56  A    between atoms: _138  and  _139
REMARK   57  A    between atoms: _144  and  _146
REMARK   58  A    between atoms: _146  and  _147
REMARK   59  A    between atoms: _146  and  _149
REMARK   60  A    between atoms: _149  and  _150
REMARK   61  A    between atoms: _150  and  _151
REMARK   62  A    between atoms: _151  and  _152
REMARK   63  A    between atoms: _161  and  _163
REMARK   64  A    between atoms: _163  and  _164
REMARK   65  A    between atoms: _163  and  _166
REMARK   66  A    between atoms: _166  and  _167
REMARK   67  A    between atoms: _170  and  _172
REMARK   68  A    between atoms: _172  and  _173
REMARK   69  A    between atoms: _172  and  _175
REMARK   70  A    between atoms: _175  and  _176
REMARK   71  A    between atoms: _182  and  _184
REMARK   72  A    between atoms: _184  and  _185
REMARK   73  A    between atoms: _184  and  _187
REMARK   74  A    between atoms: _190  and  _192
REMARK   75  A    between atoms: _192  and  _193
REMARK   76  A    between atoms: _192  and  _195
REMARK   77  A    between atoms: _195  and  _196
REMARK   78  A    between atoms: _196  and  _197
REMARK   79  A    between atoms: _199  and  _201
REMARK   80  A    between atoms: _201  and  _202
REMARK   81  A    between atoms: _201  and  _204
REMARK   82  A    between atoms: _204  and  _205
REMARK   83  A    between atoms: _208  and  _210
REMARK   84  A    between atoms: _210  and  _211
REMARK   85  A    between atoms: _210  and  _213
REMARK   86  A    between atoms: _216  and  _218
REMARK   87  A    between atoms: _218  and  _219
REMARK   88  A    between atoms: _218  and  _221
REMARK   89  A    between atoms: _221  and  _222
REMARK   90  A    between atoms: _222  and  _223
REMARK   91  A    between atoms: _226  and  _228
REMARK   92  A    between atoms: _228  and  _229
REMARK   93  A    between atoms: _228  and  _231
REMARK   94  A    between atoms: _234  and  _236
REMARK   95  A    between atoms: _236  and  _237
REMARK   96  A    between atoms: _236  and  _239
REMARK   97  A    between atoms: _239  and  _240
REMARK   98  A    between atoms: _243  and  _245
REMARK   99  A    between atoms: _245  and  _246
REMARK  100  A    between atoms: _245  and  _248
REMARK  101  A    between atoms: _250  and  _252
REMARK  102  A    between atoms: _252  and  _253
REMARK  103  A    between atoms: _252  and  _255
REMARK  104  A    between atoms: _255  and  _256
REMARK  105  A    between atoms: _260  and  _261
REMARK  106  A    between atoms: _266  and  _268
REMARK  107  A    between atoms: _268  and  _269
REMARK  108  A    between atoms: _268  and  _271
REMARK  109  A    between atoms: _271  and  _272
REMARK  110  A    between atoms: _272  and  _273
REMARK  111  A    between atoms: _273  and  _274
REMARK  112  A    between atoms: _274  and  _275
REMARK  113  A    between atoms: _279  and  _281
REMARK  114  A    between atoms: _281  and  _282
REMARK  115  A    between atoms: _281  and  _284
REMARK  116  A    between atoms: _284  and  _285
REMARK  117  A    between atoms: _288  and  _290
REMARK  118  A    between atoms: _290  and  _291
REMARK  119  A    between atoms: _290  and  _293
REMARK  120  A    between atoms: _293  and  _294
REMARK  121  A    between atoms: _299  and  _301
REMARK  122  A    between atoms: _301  and  _302
REMARK  123  A    between atoms: _305  and  _307
REMARK  124  A    between atoms: _307  and  _308
REMARK  125  A    between atoms: _307  and  _310
REMARK  126  A    between atoms: _310  and  _311
REMARK  127  A    between atoms: _316  and  _317
REMARK  128  A    between atoms: _319  and  _321
REMARK  129  A    between atoms: _321  and  _322
REMARK  130  A    between atoms: _321  and  _324
REMARK  131  A    between atoms: _324  and  _325
REMARK  132  A    between atoms: _328  and  _330
REMARK  133  A    between atoms: _330  and  _331
REMARK  134  A    between atoms: _334  and  _336
REMARK  135  A    between atoms: _336  and  _337
REMARK  136  A    between atoms: _336  and  _339
REMARK  137  A    between atoms: _339  and  _340
REMARK  138  A    between atoms: _340  and  _341
REMARK  139  A    between atoms: _341  and  _342
REMARK  140  A    between atoms: _351  and  _353
REMARK  141  A    between atoms: _353  and  _354
REMARK  142  A    between atoms: _353  and  _356
REMARK  143  A    between atoms: _356  and  _357
REMARK  144  A    between atoms: _362  and  _364
REMARK  145  A    between atoms: _364  and  _365
REMARK  146  A    between atoms: _364  and  _367
REMARK  147  A    between atoms: _367  and  _368
REMARK  148  A    between atoms: _374  and  _376
REMARK  149  A    between atoms: _376  and  _377
REMARK  150  A    between atoms: _376  and  _379
REMARK  151  A    between atoms: _379  and  _380
REMARK  152  A    between atoms: _384  and  _385
REMARK  153  A    between atoms: _390  and  _392
REMARK  154  A    between atoms: _392  and  _393
REMARK  155  A    between atoms: _392  and  _395
REMARK  156  A    between atoms: _395  and  _396
REMARK  157  A    between atoms: _399  and  _401
REMARK  158  A    between atoms: _401  and  _402
REMARK  159  A    between atoms: _401  and  _404
REMARK  160  A    between atoms: _407  and  _409
REMARK  161  A    between atoms: _409  and  _410
REMARK  162  A    between atoms: _409  and  _412
REMARK  163  A    between atoms: _412  and  _413
REMARK  164  A    between atoms: _418  and  _420
REMARK  165  A    between atoms: _420  and  _421
REMARK  166  A    between atoms: _420  and  _423
REMARK  167  A    between atoms: _423  and  _424
REMARK  168  A    between atoms: _427  and  _429
REMARK  169  A    between atoms: _429  and  _430
REMARK  170  A    between atoms: _429  and  _432
REMARK  171  A    between atoms: _432  and  _433
REMARK  172  A    between atoms: _435  and  _437
REMARK  173  A    between atoms: _437  and  _438
REMARK  174  A    between atoms: _437  and  _440
REMARK  175  A    between atoms: _440  and  _441
REMARK  176  A    between atoms: _447  and  _449
REMARK  177  A    between atoms: _449  and  _450
REMARK  178  A    between atoms: _449  and  _452
REMARK  179  A    between atoms: _452  and  _453
REMARK  180  A    between atoms: _458  and  _460
REMARK  181  A    between atoms: _460  and  _461
REMARK  182  A    between atoms: _460  and  _463
REMARK  183  A    between atoms: _463  and  _464
REMARK  184  A    between atoms: _467  and  _469
REMARK  185  A    between atoms: _469  and  _470
REMARK  186  A    between atoms: _472  and  _474
REMARK  187  A    between atoms: _474  and  _475
REMARK  188  A    between atoms: _474  and  _477
REMARK  189  A    between atoms: _477  and  _478
REMARK  190  A    between atoms: _478  and  _479
REMARK  191  A    between atoms: _484  and  _486
REMARK  192  A    between atoms: _486  and  _487
REMARK  193  A    between atoms: _490  and  _492
REMARK  194  A    between atoms: _492  and  _493
REMARK  195  A    between atoms: _492  and  _495
REMARK  196  A    between atoms: _495  and  _496
REMARK  197  A    between atoms: _499  and  _501
REMARK  198  A    between atoms: _501  and  _502
REMARK  199  A    between atoms: _505  and  _507
REMARK  200  A    between atoms: _507  and  _508
REMARK  201  A    between atoms: _507  and  _510
REMARK  202  A    between atoms: _510  and  _511
REMARK  203  A    between atoms: _516  and  _518
REMARK  204  A    between atoms: _518  and  _519
REMARK  205  A    between atoms: _518  and  _521
REMARK  206  A    between atoms: _521  and  _522
REMARK  207  A    between atoms: _527  and  _528
REMARK  208  A    between atoms: _530  and  _532
REMARK  209  A    between atoms: _532  and  _533
REMARK  210  A    between atoms: _532  and  _535
REMARK  211  A    between atoms: _535  and  _536
REMARK  212  A    between atoms: _539  and  _541
REMARK  213  A    between atoms: _541  and  _542
REMARK  214  A    between atoms: _541  and  _544
REMARK  215  A    between atoms: _544  and  _545
REMARK  216  A    between atoms: _547  and  _549
REMARK  217  A    between atoms: _549  and  _550
REMARK  218  A    between atoms: _549  and  _552
REMARK  219  A    between atoms: _552  and  _553
REMARK  220  A    between atoms: _559  and  _561
REMARK  221  A    between atoms: _561  and  _562
REMARK  222  A    between atoms: _561  and  _564
REMARK  223  A    between atoms: _564  and  _565
REMARK  224  A    between atoms: _565  and  _566
REMARK  225  A    between atoms: _569  and  _571
REMARK  226  A    between atoms: _571  and  _572
REMARK  227  A    between atoms: _571  and  _574
REMARK  228  A    between atoms: _574  and  _575
REMARK  229  A    between atoms: _575  and  _576
REMARK  230  A    between atoms: _576  and  _577
REMARK  231  A    between atoms: _577  and  _578
REMARK  232  A    between atoms: _582  and  _584
REMARK  233  A    between atoms: _584  and  _585
REMARK  234  A    between atoms: _584  and  _587
REMARK  235  A    between atoms: _587  and  _588
REMARK  236  A    between atoms: _590  and  _592
REMARK  237  A    between atoms: _592  and  _593
REMARK  238  A    between atoms: _592  and  _595
REMARK  239  A    between atoms: _595  and  _596
REMARK  240  A    between atoms: _596  and  _597
REMARK  241  A    between atoms: _597  and  _598
REMARK                            x       y       z     vdW  Elec       q    Type
REMARK                         _______ _______ _______ _____ _____    ______ ____
ROOT
ATOM      1  O   HOH     1       4.395  31.556   6.228  0.00  0.00    +0.000 OA
ENDROOT
TORSDOF 0
REMARK  Name = ../refined-set-2016/3wgg/3wgg_pocket.pdb
REMARK  241 active torsions:
REMARK  status: ('A' for Active; 'I' for Inactive)
REMARK    1  A    between atoms: _1  and  _3
REMARK    2  A    between atoms: _3  and  _4
REMARK    3  A    between atoms: _3  and  _6
REMARK    4  A    between atoms: _6  and  _7
REMARK    5  A    between atoms: _10  and  _12
REMARK    6  A    between atoms: _12  and  _13
REMARK    7  A    between atoms: _12  and  _15
REMARK    8  A    between atoms: _15  and  _16
REMARK    9  A    between atoms: _19  and  _21
REMARK   10  A    between atoms: _21  and  _22
REMARK   11  A    between atoms: _24  and  _26
REMARK   12  A    between atoms: _26  and  _27
REMARK   13  A    between atoms: _30  and  _32
REMARK   14  A    between atoms: _32  and  _33
REMARK   15  A    between atoms: _35  and  _37
REMARK   16  A    between atoms: _37  and  _38
REMARK   17  A    between atoms: _37  and  _40
REMARK   18  A    between atoms: _40  and  _41
REMARK   19  A    between atoms: _46  and  _48
REMARK   20  A    between atoms: _48  and  _49
REMARK   21  A    between atoms: _48  and  _51
REMARK   22  A    between atoms: _51  and  _52
REMARK   23  A    between atoms: _55  and  _57
REMARK   24  A    between atoms: _57  and  _58
REMARK   25  A    between atoms: _60  and  _62
REMARK   26  A    between atoms: _62  and  _63
REMARK   27  A    between atoms: _62  and  _65
REMARK   28  A    between atoms: _65  and  _66
REMARK   29  A    between atoms: _66  and  _67
REMARK   30  A    between atoms: _72  and  _74
REMARK   31  A    between atoms: _74  and  _75
REMARK   32  A    between atoms: _78  and  _80
REMARK   33  A    between atoms: _80  and  _81
REMARK   34  A    between atoms: _80  and  _83
REMARK   35  A    between atoms: _83  and  _84
REMARK   36  A    between atoms: _87  and  _89
REMARK   37  A    between atoms: _89  and  _90
REMARK   38  A    between atoms: _89  and  _92
REMARK   39  A    between atoms: _92  and  _93
REMARK   40  A    between atoms: _96  and  _98
REMARK   41  A    between atoms: _98  and  _99
REMARK   42  A    between atoms: _98  and  _101
REMARK   43  A    between atoms: _101  and  _102
REMARK   44  A    between atoms: _108  and  _110
REMARK   45  A    between atoms: _110  and  _111
REMARK   46  A    between atoms: _110  and  _113
REMARK   47  A    between atoms: _113  and  _114
REMARK   48  A    between atoms: _117  and  _119
REMARK   49  A    between atoms: _119  and  _120
REMARK   50  A    between atoms: _119  and  _122
REMARK   51  A    between atoms: _122  and  _123
REMARK   52  A    between atoms: _126  and  _128
REMARK   53  A    between atoms: _128  and  _129
REMARK   54  A    between atoms: _128  and  _131
REMARK   55  A    between atoms: _131  and  _132
REMARK   56  A    between atoms: _138  and  _139
REMARK   57  A    between atoms: _144  and  _146
REMARK   58  A    between atoms: _146  and  _147
REMARK   59  A    between atoms: _146  and  _149
REMARK   60  A    between atoms: _149  and  _150
REMARK   61  A    between atoms: _150  and  _151
REMARK   62  A    between atoms: _151  and  _152
REMARK   63  A    between atoms: _161  and  _163
REMARK   64  A    between atoms: _163  and  _164
REMARK   65  A    between atoms: _163  and  _166
REMARK   66  A    between atoms: _166  and  _167
REMARK   67  A    between atoms: _170  and  _172
REMARK   68  A    between atoms: _172  and  _173
REMARK   69  A    between atoms: _172  and  _175
REMARK   70  A    between atoms: _175  and  _176
REMARK   71  A    between atoms: _182  and  _184
REMARK   72  A    between atoms: _184  and  _185
REMARK   73  A    between atoms: _184  and  _187
REMARK   74  A    between atoms: _190  and  _192
REMARK   75  A    between atoms: _192  and  _193
REMARK   76  A    between atoms: _192  and  _195
REMARK   77  A    between atoms: _195  and  _196
REMARK   78  A    between atoms: _196  and  _197
REMARK   79  A    between atoms: _199  and  _201
REMARK   80  A    between atoms: _201  and  _202
REMARK   81  A    between atoms: _201  and  _204
REMARK   82  A    between atoms: _204  and  _205
REMARK   83  A    between atoms: _208  and  _210
REMARK   84  A    between atoms: _210  and  _211
REMARK   85  A    between atoms: _210  and  _213
REMARK   86  A    between atoms: _216  and  _218
REMARK   87  A    between atoms: _218  and  _219
REMARK   88  A    between atoms: _218  and  _221
REMARK   89  A    between atoms: _221  and  _222
REMARK   90  A    between atoms: _222  and  _223
REMARK   91  A    between atoms: _226  and  _228
REMARK   92  A    between atoms: _228  and  _229
REMARK   93  A    between atoms: _228  and  _231
REMARK   94  A    between atoms: _234  and  _236
REMARK   95  A    between atoms: _236  and  _237
REMARK   96  A    between atoms: _236  and  _239
REMARK   97  A    between atoms: _239  and  _240
REMARK   98  A    between atoms: _243  and  _245
REMARK   99  A    between atoms: _245  and  _246
REMARK  100  A    between atoms: _245  and  _248
REMARK  101  A    between atoms: _250  and  _252
REMARK  102  A    between atoms: _252  and  _253
REMARK  103  A    between atoms: _252  and  _255
REMARK  104  A    between atoms: _255  and  _256
REMARK  105  A    between atoms: _260  and  _261
REMARK  106  A    between atoms: _266  and  _268
REMARK  107  A    between atoms: _268  and  _269
REMARK  108  A    between atoms: _268  and  _271
REMARK  109  A    between atoms: _271  and  _272
REMARK  110  A    between atoms: _272  and  _273
REMARK  111  A    between atoms: _273  and  _274
REMARK  112  A    between atoms: _274  and  _275
REMARK  113  A    between atoms: _279  and  _281
REMARK  114  A    between atoms: _281  and  _282
REMARK  115  A    between atoms: _281  and  _284
REMARK  116  A    between atoms: _284  and  _285
REMARK  117  A    between atoms: _288  and  _290
REMARK  118  A    between atoms: _290  and  _291
REMARK  119  A    between atoms: _290  and  _293
REMARK  120  A    between atoms: _293  and  _294
REMARK  121  A    between atoms: _299  and  _301
REMARK  122  A    between atoms: _301  and  _302
REMARK  123  A    between atoms: _305  and  _307
REMARK  124  A    between atoms: _307  and  _308
REMARK  125  A    between atoms: _307  and  _310
REMARK  126  A    between atoms: _310  and  _311
REMARK  127  A    between atoms: _316  and  _317
REMARK  128  A    between atoms: _319  and  _321
REMARK  129  A    between atoms: _321  and  _322
REMARK  130  A    between atoms: _321  and  _324
REMARK  131  A    between atoms: _324  and  _325
REMARK  132  A    between atoms: _328  and  _330
REMARK  133  A    between atoms: _330  and  _331
REMARK  134  A    between atoms: _334  and  _336
REMARK  135  A    between atoms: _336  and  _337
REMARK  136  A    between atoms: _336  and  _339
REMARK  137  A    between atoms: _339  and  _340
REMARK  138  A    between atoms: _340  and  _341
REMARK  139  A    between atoms: _341  and  _342
REMARK  140  A    between atoms: _351  and  _353
REMARK  141  A    between atoms: _353  and  _354
REMARK  142  A    between atoms: _353  and  _356
REMARK  143  A    between atoms: _356  and  _357
REMARK  144  A    between atoms: _362  and  _364
REMARK  145  A    between atoms: _364  and  _365
REMARK  146  A    between atoms: _364  and  _367
REMARK  147  A    between atoms: _367  and  _368
REMARK  148  A    between atoms: _374  and  _376
REMARK  149  A    between atoms: _376  and  _377
REMARK  150  A    between atoms: _376  and  _379
REMARK  151  A    between atoms: _379  and  _380
REMARK  152  A    between atoms: _384  and  _385
REMARK  153  A    between atoms: _390  and  _392
REMARK  154  A    between atoms: _392  and  _393
REMARK  155  A    between atoms: _392  and  _395
REMARK  156  A    between atoms: _395  and  _396
REMARK  157  A    between atoms: _399  and  _401
REMARK  158  A    between atoms: _401  and  _402
REMARK  159  A    between atoms: _401  and  _404
REMARK  160  A    between atoms: _407  and  _409
REMARK  161  A    between atoms: _409  and  _410
REMARK  162  A    between atoms: _409  and  _412
REMARK  163  A    between atoms: _412  and  _413
REMARK  164  A    between atoms: _418  and  _420
REMARK  165  A    between atoms: _420  and  _421
REMARK  166  A    between atoms: _420  and  _423
REMARK  167  A    between atoms: _423  and  _424
REMARK  168  A    between atoms: _427  and  _429
REMARK  169  A    between atoms: _429  and  _430
REMARK  170  A    between atoms: _429  and  _432
REMARK  171  A    between atoms: _432  and  _433
REMARK  172  A    between atoms: _435  and  _437
REMARK  173  A    between atoms: _437  and  _438
REMARK  174  A    between atoms: _437  and  _440
REMARK  175  A    between atoms: _440  and  _441
REMARK  176  A    between atoms: _447  and  _449
REMARK  177  A    between atoms: _449  and  _450
REMARK  178  A    between atoms: _449  and  _452
REMARK  179  A    between atoms: _452  and  _453
REMARK  180  A    between atoms: _458  and  _460
REMARK  181  A    between atoms: _460  and  _461
REMARK  182  A    between atoms: _460  and  _463
REMARK  183  A    between atoms: _463  and  _464
REMARK  184  A    between atoms: _467  and  _469
REMARK  185  A    between atoms: _469  and  _470
REMARK  186  A    between atoms: _472  and  _474
REMARK  187  A    between atoms: _474  and  _475
REMARK  188  A    between atoms: _474  and  _477
REMARK  189  A    between atoms: _477  and  _478
REMARK  190  A    between atoms: _478  and  _479
REMARK  191  A    between atoms: _484  and  _486
REMARK  192  A    between atoms: _486  and  _487
REMARK  193  A    between atoms: _490  and  _492
REMARK  194  A    between atoms: _492  and  _493
REMARK  195  A    between atoms: _492  and  _495
REMARK  196  A    between atoms: _495  and  _496
REMARK  197  A    between atoms: _499  and  _501
REMARK  198  A    between atoms: _501  and  _502
REMARK  199  A    between atoms: _505  and  _507
REMARK  200  A    between atoms: _507  and  _508
REMARK  201  A    between atoms: _507  and  _510
REMARK  202  A    between atoms: _510  and  _511
REMARK  203  A    between atoms: _516  and  _518
REMARK  204  A    between atoms: _518  and  _519
REMARK  205  A    between atoms: _518  and  _521
REMARK  206  A    between atoms: _521  and  _522
REMARK  207  A    between atoms: _527  and  _528
REMARK  208  A    between atoms: _530  and  _532
REMARK  209  A    between atoms: _532  and  _533
REMARK  210  A    between atoms: _532  and  _535
REMARK  211  A    between atoms: _535  and  _536
REMARK  212  A    between atoms: _539  and  _541
REMARK  213  A    between atoms: _541  and  _542
REMARK  214  A    between atoms: _541  and  _544
REMARK  215  A    between atoms: _544  and  _545
REMARK  216  A    between atoms: _547  and  _549
REMARK  217  A    between atoms: _549  and  _550
REMARK  218  A    between atoms: _549  and  _552
REMARK  219  A    between atoms: _552  and  _553
REMARK  220  A    between atoms: _559  and  _561
REMARK  221  A    between atoms: _561  and  _562
REMARK  222  A    between atoms: _561  and  _564
REMARK  223  A    between atoms: _564  and  _565
REMARK  224  A    between atoms: _565  and  _566
REMARK  225  A    between atoms: _569  and  _571
REMARK  226  A    between atoms: _571  and  _572
REMARK  227  A    between atoms: _571  and  _574
REMARK  228  A    between atoms: _574  and  _575
REMARK  229  A    between atoms: _575  and  _576
REMARK  230  A    between atoms: _576  and  _577
REMARK  231  A    between atoms: _577  and  _578
REMARK  232  A    between atoms: _582  and  _584
REMARK  233  A    between atoms: _584  and  _585
REMARK  234  A    between atoms: _584  and  _587
REMARK  235  A    between atoms: _587  and  _588
REMARK  236  A    between atoms: _590  and  _592
REMARK  237  A    between atoms: _592  and  _593
REMARK  238  A    between atoms: _592  and  _595
REMARK  239  A    between atoms: _595  and  _596
REMARK  240  A    between atoms: _596  and  _597
REMARK  241  A    between atoms: _597  and  _598
REMARK                            x       y       z     vdW  Elec       q    Type
REMARK                         _______ _______ _______ _____ _____    ______ ____
ROOT
ATOM      1  O   HOH     1      -3.548  31.010  12.296  0.00  0.00    +0.000 OA
ENDROOT
TORSDOF 0
REMARK  Name = ../refined-set-2016/3wgg/3wgg_pocket.pdb
REMARK  241 active torsions:
REMARK  status: ('A' for Active; 'I' for Inactive)
REMARK    1  A    between atoms: _1  and  _3
REMARK    2  A    between atoms: _3  and  _4
REMARK    3  A    between atoms: _3  and  _6
REMARK    4  A    between atoms: _6  and  _7
REMARK    5  A    between atoms: _10  and  _12
REMARK    6  A    between atoms: _12  and  _13
REMARK    7  A    between atoms: _12  and  _15
REMARK    8  A    between atoms: _15  and  _16
REMARK    9  A    between atoms: _19  and  _21
REMARK   10  A    between atoms: _21  and  _22
REMARK   11  A    between atoms: _24  and  _26
REMARK   12  A    between atoms: _26  and  _27
REMARK   13  A    between atoms: _30  and  _32
REMARK   14  A    between atoms: _32  and  _33
REMARK   15  A    between atoms: _35  and  _37
REMARK   16  A    between atoms: _37  and  _38
REMARK   17  A    between atoms: _37  and  _40
REMARK   18  A    between atoms: _40  and  _41
REMARK   19  A    between atoms: _46  and  _48
REMARK   20  A    between atoms: _48  and  _49
REMARK   21  A    between atoms: _48  and  _51
REMARK   22  A    between atoms: _51  and  _52
REMARK   23  A    between atoms: _55  and  _57
REMARK   24  A    between atoms: _57  and  _58
REMARK   25  A    between atoms: _60  and  _62
REMARK   26  A    between atoms: _62  and  _63
REMARK   27  A    between atoms: _62  and  _65
REMARK   28  A    between atoms: _65  and  _66
REMARK   29  A    between atoms: _66  and  _67
REMARK   30  A    between atoms: _72  and  _74
REMARK   31  A    between atoms: _74  and  _75
REMARK   32  A    between atoms: _78  and  _80
REMARK   33  A    between atoms: _80  and  _81
REMARK   34  A    between atoms: _80  and  _83
REMARK   35  A    between atoms: _83  and  _84
REMARK   36  A    between atoms: _87  and  _89
REMARK   37  A    between atoms: _89  and  _90
REMARK   38  A    between atoms: _89  and  _92
REMARK   39  A    between atoms: _92  and  _93
REMARK   40  A    between atoms: _96  and  _98
REMARK   41  A    between atoms: _98  and  _99
REMARK   42  A    between atoms: _98  and  _101
REMARK   43  A    between atoms: _101  and  _102
REMARK   44  A    between atoms: _108  and  _110
REMARK   45  A    between atoms: _110  and  _111
REMARK   46  A    between atoms: _110  and  _113
REMARK   47  A    between atoms: _113  and  _114
REMARK   48  A    between atoms: _117  and  _119
REMARK   49  A    between atoms: _119  and  _120
REMARK   50  A    between atoms: _119  and  _122
REMARK   51  A    between atoms: _122  and  _123
REMARK   52  A    between atoms: _126  and  _128
REMARK   53  A    between atoms: _128  and  _129
REMARK   54  A    between atoms: _128  and  _131
REMARK   55  A    between atoms: _131  and  _132
REMARK   56  A    between atoms: _138  and  _139
REMARK   57  A    between atoms: _144  and  _146
REMARK   58  A    between atoms: _146  and  _147
REMARK   59  A    between atoms: _146  and  _149
REMARK   60  A    between atoms: _149  and  _150
REMARK   61  A    between atoms: _150  and  _151
REMARK   62  A    between atoms: _151  and  _152
REMARK   63  A    between atoms: _161  and  _163
REMARK   64  A    between atoms: _163  and  _164
REMARK   65  A    between atoms: _163  and  _166
REMARK   66  A    between atoms: _166  and  _167
REMARK   67  A    between atoms: _170  and  _172
REMARK   68  A    between atoms: _172  and  _173
REMARK   69  A    between atoms: _172  and  _175
REMARK   70  A    between atoms: _175  and  _176
REMARK   71  A    between atoms: _182  and  _184
REMARK   72  A    between atoms: _184  and  _185
REMARK   73  A    between atoms: _184  and  _187
REMARK   74  A    between atoms: _190  and  _192
REMARK   75  A    between atoms: _192  and  _193
REMARK   76  A    between atoms: _192  and  _195
REMARK   77  A    between atoms: _195  and  _196
REMARK   78  A    between atoms: _196  and  _197
REMARK   79  A    between atoms: _199  and  _201
REMARK   80  A    between atoms: _201  and  _202
REMARK   81  A    between atoms: _201  and  _204
REMARK   82  A    between atoms: _204  and  _205
REMARK   83  A    between atoms: _208  and  _210
REMARK   84  A    between atoms: _210  and  _211
REMARK   85  A    between atoms: _210  and  _213
REMARK   86  A    between atoms: _216  and  _218
REMARK   87  A    between atoms: _218  and  _219
REMARK   88  A    between atoms: _218  and  _221
REMARK   89  A    between atoms: _221  and  _222
REMARK   90  A    between atoms: _222  and  _223
REMARK   91  A    between atoms: _226  and  _228
REMARK   92  A    between atoms: _228  and  _229
REMARK   93  A    between atoms: _228  and  _231
REMARK   94  A    between atoms: _234  and  _236
REMARK   95  A    between atoms: _236  and  _237
REMARK   96  A    between atoms: _236  and  _239
REMARK   97  A    between atoms: _239  and  _240
REMARK   98  A    between atoms: _243  and  _245
REMARK   99  A    between atoms: _245  and  _246
REMARK  100  A    between atoms: _245  and  _248
REMARK  101  A    between atoms: _250  and  _252
REMARK  102  A    between atoms: _252  and  _253
REMARK  103  A    between atoms: _252  and  _255
REMARK  104  A    between atoms: _255  and  _256
REMARK  105  A    between atoms: _260  and  _261
REMARK  106  A    between atoms: _266  and  _268
REMARK  107  A    between atoms: _268  and  _269
REMARK  108  A    between atoms: _268  and  _271
REMARK  109  A    between atoms: _271  and  _272
REMARK  110  A    between atoms: _272  and  _273
REMARK  111  A    between atoms: _273  and  _274
REMARK  112  A    between atoms: _274  and  _275
REMARK  113  A    between atoms: _279  and  _281
REMARK  114  A    between atoms: _281  and  _282
REMARK  115  A    between atoms: _281  and  _284
REMARK  116  A    between atoms: _284  and  _285
REMARK  117  A    between atoms: _288  and  _290
REMARK  118  A    between atoms: _290  and  _291
REMARK  119  A    between atoms: _290  and  _293
REMARK  120  A    between atoms: _293  and  _294
REMARK  121  A    between atoms: _299  and  _301
REMARK  122  A    between atoms: _301  and  _302
REMARK  123  A    between atoms: _305  and  _307
REMARK  124  A    between atoms: _307  and  _308
REMARK  125  A    between atoms: _307  and  _310
REMARK  126  A    between atoms: _310  and  _311
REMARK  127  A    between atoms: _316  and  _317
REMARK  128  A    between atoms: _319  and  _321
REMARK  129  A    between atoms: _321  and  _322
REMARK  130  A    between atoms: _321  and  _324
REMARK  131  A    between atoms: _324  and  _325
REMARK  132  A    between atoms: _328  and  _330
REMARK  133  A    between atoms: _330  and  _331
REMARK  134  A    between atoms: _334  and  _336
REMARK  135  A    between atoms: _336  and  _337
REMARK  136  A    between atoms: _336  and  _339
REMARK  137  A    between atoms: _339  and  _340
REMARK  138  A    between atoms: _340  and  _341
REMARK  139  A    between atoms: _341  and  _342
REMARK  140  A    between atoms: _351  and  _353
REMARK  141  A    between atoms: _353  and  _354
REMARK  142  A    between atoms: _353  and  _356
REMARK  143  A    between atoms: _356  and  _357
REMARK  144  A    between atoms: _362  and  _364
REMARK  145  A    between atoms: _364  and  _365
REMARK  146  A    between atoms: _364  and  _367
REMARK  147  A    between atoms: _367  and  _368
REMARK  148  A    between atoms: _374  and  _376
REMARK  149  A    between atoms: _376  and  _377
REMARK  150  A    between atoms: _376  and  _379
REMARK  151  A    between atoms: _379  and  _380
REMARK  152  A    between atoms: _384  and  _385
REMARK  153  A    between atoms: _390  and  _392
REMARK  154  A    between atoms: _392  and  _393
REMARK  155  A    between atoms: _392  and  _395
REMARK  156  A    between atoms: _395  and  _396
REMARK  157  A    between atoms: _399  and  _401
REMARK  158  A    between atoms: _401  and  _402
REMARK  159  A    between atoms: _401  and  _404
REMARK  160  A    between atoms: _407  and  _409
REMARK  161  A    between atoms: _409  and  _410
REMARK  162  A    between atoms: _409  and  _412
REMARK  163  A    between atoms: _412  and  _413
REMARK  164  A    between atoms: _418  and  _420
REMARK  165  A    between atoms: _420  and  _421
REMARK  166  A    between atoms: _420  and  _423
REMARK  167  A    between atoms: _423  and  _424
REMARK  168  A    between atoms: _427  and  _429
REMARK  169  A    between atoms: _429  and  _430
REMARK  170  A    between atoms: _429  and  _432
REMARK  171  A    between atoms: _432  and  _433
REMARK  172  A    between atoms: _435  and  _437
REMARK  173  A    between atoms: _437  and  _438
REMARK  174  A    between atoms: _437  and  _440
REMARK  175  A    between atoms: _440  and  _441
REMARK  176  A    between atoms: _447  and  _449
REMARK  177  A    between atoms: _449  and  _450
REMARK  178  A    between atoms: _449  and  _452
REMARK  179  A    between atoms: _452  and  _453
REMARK  180  A    between atoms: _458  and  _460
REMARK  181  A    between atoms: _460  and  _461
REMARK  182  A    between atoms: _460  and  _463
REMARK  183  A    between atoms: _463  and  _464
REMARK  184  A    between atoms: _467  and  _469
REMARK  185  A    between atoms: _469  and  _470
REMARK  186  A    between atoms: _472  and  _474
REMARK  187  A    between atoms: _474  and  _475
REMARK  188  A    between atoms: _474  and  _477
REMARK  189  A    between atoms: _477  and  _478
REMARK  190  A    between atoms: _478  and  _479
REMARK  191  A    between atoms: _484  and  _486
REMARK  192  A    between atoms: _486  and  _487
REMARK  193  A    between atoms: _490  and  _492
REMARK  194  A    between atoms: _492  and  _493
REMARK  195  A    between atoms: _492  and  _495
REMARK  196  A    between atoms: _495  and  _496
REMARK  197  A    between atoms: _499  and  _501
REMARK  198  A    between atoms: _501  and  _502
REMARK  199  A    between atoms: _505  and  _507
REMARK  200  A    between atoms: _507  and  _508
REMARK  201  A    between atoms: _507  and  _510
REMARK  202  A    between atoms: _510  and  _511
REMARK  203  A    between atoms: _516  and  _518
REMARK  204  A    between atoms: _518  and  _519
REMARK  205  A    between atoms: _518  and  _521
REMARK  206  A    between atoms: _521  and  _522
REMARK  207  A    between atoms: _527  and  _528
REMARK  208  A    between atoms: _530  and  _532
REMARK  209  A    between atoms: _532  and  _533
REMARK  210  A    between atoms: _532  and  _535
REMARK  211  A    between atoms: _535  and  _536
REMARK  212  A    between atoms: _539  and  _541
REMARK  213  A    between atoms: _541  and  _542
REMARK  214  A    between atoms: _541  and  _544
REMARK  215  A    between atoms: _544  and  _545
REMARK  216  A    between atoms: _547  and  _549
REMARK  217  A    between atoms: _549  and  _550
REMARK  218  A    between atoms: _549  and  _552
REMARK  219  A    between atoms: _552  and  _553
REMARK  220  A    between atoms: _559  and  _561
REMARK  221  A    between atoms: _561  and  _562
REMARK  222  A    between atoms: _561  and  _564
REMARK  223  A    between atoms: _564  and  _565
REMARK  224  A    between atoms: _565  and  _566
REMARK  225  A    between atoms: _569  and  _571
REMARK  226  A    between atoms: _571  and  _572
REMARK  227  A    between atoms: _571  and  _574
REMARK  228  A    between atoms: _574  and  _575
REMARK  229  A    between atoms: _575  and  _576
REMARK  230  A    between atoms: _576  and  _577
REMARK  231  A    between atoms: _577  and  _578
REMARK  232  A    between atoms: _582  and  _584
REMARK  233  A    between atoms: _584  and  _585
REMARK  234  A    between atoms: _584  and  _587
REMARK  235  A    between atoms: _587  and  _588
REMARK  236  A    between atoms: _590  and  _592
REMARK  237  A    between atoms: _592  and  _593
REMARK  238  A    between atoms: _592  and  _595
REMARK  239  A    between atoms: _595  and  _596
REMARK  240  A    between atoms: _596  and  _597
REMARK  241  A    between atoms: _597  and  _598
REMARK                            x       y       z     vdW  Elec       q    Type
REMARK                         _______ _______ _______ _____ _____    ______ ____
ROOT
ATOM      1  O   HOH     1      -2.818  31.972  10.676  0.00  0.00    +0.000 OA
ENDROOT
TORSDOF 0
REMARK  Name = ../refined-set-2016/3wgg/3wgg_pocket.pdb
REMARK  241 active torsions:
REMARK  status: ('A' for Active; 'I' for Inactive)
REMARK    1  A    between atoms: _1  and  _3
REMARK    2  A    between atoms: _3  and  _4
REMARK    3  A    between atoms: _3  and  _6
REMARK    4  A    between atoms: _6  and  _7
REMARK    5  A    between atoms: _10  and  _12
REMARK    6  A    between atoms: _12  and  _13
REMARK    7  A    between atoms: _12  and  _15
REMARK    8  A    between atoms: _15  and  _16
REMARK    9  A    between atoms: _19  and  _21
REMARK   10  A    between atoms: _21  and  _22
REMARK   11  A    between atoms: _24  and  _26
REMARK   12  A    between atoms: _26  and  _27
REMARK   13  A    between atoms: _30  and  _32
REMARK   14  A    between atoms: _32  and  _33
REMARK   15  A    between atoms: _35  and  _37
REMARK   16  A    between atoms: _37  and  _38
REMARK   17  A    between atoms: _37  and  _40
REMARK   18  A    between atoms: _40  and  _41
REMARK   19  A    between atoms: _46  and  _48
REMARK   20  A    between atoms: _48  and  _49
REMARK   21  A    between atoms: _48  and  _51
REMARK   22  A    between atoms: _51  and  _52
REMARK   23  A    between atoms: _55  and  _57
REMARK   24  A    between atoms: _57  and  _58
REMARK   25  A    between atoms: _60  and  _62
REMARK   26  A    between atoms: _62  and  _63
REMARK   27  A    between atoms: _62  and  _65
REMARK   28  A    between atoms: _65  and  _66
REMARK   29  A    between atoms: _66  and  _67
REMARK   30  A    between atoms: _72  and  _74
REMARK   31  A    between atoms: _74  and  _75
REMARK   32  A    between atoms: _78  and  _80
REMARK   33  A    between atoms: _80  and  _81
REMARK   34  A    between atoms: _80  and  _83
REMARK   35  A    between atoms: _83  and  _84
REMARK   36  A    between atoms: _87  and  _89
REMARK   37  A    between atoms: _89  and  _90
REMARK   38  A    between atoms: _89  and  _92
REMARK   39  A    between atoms: _92  and  _93
REMARK   40  A    between atoms: _96  and  _98
REMARK   41  A    between atoms: _98  and  _99
REMARK   42  A    between atoms: _98  and  _101
REMARK   43  A    between atoms: _101  and  _102
REMARK   44  A    between atoms: _108  and  _110
REMARK   45  A    between atoms: _110  and  _111
REMARK   46  A    between atoms: _110  and  _113
REMARK   47  A    between atoms: _113  and  _114
REMARK   48  A    between atoms: _117  and  _119
REMARK   49  A    between atoms: _119  and  _120
REMARK   50  A    between atoms: _119  and  _122
REMARK   51  A    between atoms: _122  and  _123
REMARK   52  A    between atoms: _126  and  _128
REMARK   53  A    between atoms: _128  and  _129
REMARK   54  A    between atoms: _128  and  _131
REMARK   55  A    between atoms: _131  and  _132
REMARK   56  A    between atoms: _138  and  _139
REMARK   57  A    between atoms: _144  and  _146
REMARK   58  A    between atoms: _146  and  _147
REMARK   59  A    between atoms: _146  and  _149
REMARK   60  A    between atoms: _149  and  _150
REMARK   61  A    between atoms: _150  and  _151
REMARK   62  A    between atoms: _151  and  _152
REMARK   63  A    between atoms: _161  and  _163
REMARK   64  A    between atoms: _163  and  _164
REMARK   65  A    between atoms: _163  and  _166
REMARK   66  A    between atoms: _166  and  _167
REMARK   67  A    between atoms: _170  and  _172
REMARK   68  A    between atoms: _172  and  _173
REMARK   69  A    between atoms: _172  and  _175
REMARK   70  A    between atoms: _175  and  _176
REMARK   71  A    between atoms: _182  and  _184
REMARK   72  A    between atoms: _184  and  _185
REMARK   73  A    between atoms: _184  and  _187
REMARK   74  A    between atoms: _190  and  _192
REMARK   75  A    between atoms: _192  and  _193
REMARK   76  A    between atoms: _192  and  _195
REMARK   77  A    between atoms: _195  and  _196
REMARK   78  A    between atoms: _196  and  _197
REMARK   79  A    between atoms: _199  and  _201
REMARK   80  A    between atoms: _201  and  _202
REMARK   81  A    between atoms: _201  and  _204
REMARK   82  A    between atoms: _204  and  _205
REMARK   83  A    between atoms: _208  and  _210
REMARK   84  A    between atoms: _210  and  _211
REMARK   85  A    between atoms: _210  and  _213
REMARK   86  A    between atoms: _216  and  _218
REMARK   87  A    between atoms: _218  and  _219
REMARK   88  A    between atoms: _218  and  _221
REMARK   89  A    between atoms: _221  and  _222
REMARK   90  A    between atoms: _222  and  _223
REMARK   91  A    between atoms: _226  and  _228
REMARK   92  A    between atoms: _228  and  _229
REMARK   93  A    between atoms: _228  and  _231
REMARK   94  A    between atoms: _234  and  _236
REMARK   95  A    between atoms: _236  and  _237
REMARK   96  A    between atoms: _236  and  _239
REMARK   97  A    between atoms: _239  and  _240
REMARK   98  A    between atoms: _243  and  _245
REMARK   99  A    between atoms: _245  and  _246
REMARK  100  A    between atoms: _245  and  _248
REMARK  101  A    between atoms: _250  and  _252
REMARK  102  A    between atoms: _252  and  _253
REMARK  103  A    between atoms: _252  and  _255
REMARK  104  A    between atoms: _255  and  _256
REMARK  105  A    between atoms: _260  and  _261
REMARK  106  A    between atoms: _266  and  _268
REMARK  107  A    between atoms: _268  and  _269
REMARK  108  A    between atoms: _268  and  _271
REMARK  109  A    between atoms: _271  and  _272
REMARK  110  A    between atoms: _272  and  _273
REMARK  111  A    between atoms: _273  and  _274
REMARK  112  A    between atoms: _274  and  _275
REMARK  113  A    between atoms: _279  and  _281
REMARK  114  A    between atoms: _281  and  _282
REMARK  115  A    between atoms: _281  and  _284
REMARK  116  A    between atoms: _284  and  _285
REMARK  117  A    between atoms: _288  and  _290
REMARK  118  A    between atoms: _290  and  _291
REMARK  119  A    between atoms: _290  and  _293
REMARK  120  A    between atoms: _293  and  _294
REMARK  121  A    between atoms: _299  and  _301
REMARK  122  A    between atoms: _301  and  _302
REMARK  123  A    between atoms: _305  and  _307
REMARK  124  A    between atoms: _307  and  _308
REMARK  125  A    between atoms: _307  and  _310
REMARK  126  A    between atoms: _310  and  _311
REMARK  127  A    between atoms: _316  and  _317
REMARK  128  A    between atoms: _319  and  _321
REMARK  129  A    between atoms: _321  and  _322
REMARK  130  A    between atoms: _321  and  _324
REMARK  131  A    between atoms: _324  and  _325
REMARK  132  A    between atoms: _328  and  _330
REMARK  133  A    between atoms: _330  and  _331
REMARK  134  A    between atoms: _334  and  _336
REMARK  135  A    between atoms: _336  and  _337
REMARK  136  A    between atoms: _336  and  _339
REMARK  137  A    between atoms: _339  and  _340
REMARK  138  A    between atoms: _340  and  _341
REMARK  139  A    between atoms: _341  and  _342
REMARK  140  A    between atoms: _351  and  _353
REMARK  141  A    between atoms: _353  and  _354
REMARK  142  A    between atoms: _353  and  _356
REMARK  143  A    between atoms: _356  and  _357
REMARK  144  A    between atoms: _362  and  _364
REMARK  145  A    between atoms: _364  and  _365
REMARK  146  A    between atoms: _364  and  _367
REMARK  147  A    between atoms: _367  and  _368
REMARK  148  A    between atoms: _374  and  _376
REMARK  149  A    between atoms: _376  and  _377
REMARK  150  A    between atoms: _376  and  _379
REMARK  151  A    between atoms: _379  and  _380
REMARK  152  A    between atoms: _384  and  _385
REMARK  153  A    between atoms: _390  and  _392
REMARK  154  A    between atoms: _392  and  _393
REMARK  155  A    between atoms: _392  and  _395
REMARK  156  A    between atoms: _395  and  _396
REMARK  157  A    between atoms: _399  and  _401
REMARK  158  A    between atoms: _401  and  _402
REMARK  159  A    between atoms: _401  and  _404
REMARK  160  A    between atoms: _407  and  _409
REMARK  161  A    between atoms: _409  and  _410
REMARK  162  A    between atoms: _409  and  _412
REMARK  163  A    between atoms: _412  and  _413
REMARK  164  A    between atoms: _418  and  _420
REMARK  165  A    between atoms: _420  and  _421
REMARK  166  A    between atoms: _420  and  _423
REMARK  167  A    between atoms: _423  and  _424
REMARK  168  A    between atoms: _427  and  _429
REMARK  169  A    between atoms: _429  and  _430
REMARK  170  A    between atoms: _429  and  _432
REMARK  171  A    between atoms: _432  and  _433
REMARK  172  A    between atoms: _435  and  _437
REMARK  173  A    between atoms: _437  and  _438
REMARK  174  A    between atoms: _437  and  _440
REMARK  175  A    between atoms: _440  and  _441
REMARK  176  A    between atoms: _447  and  _449
REMARK  177  A    between atoms: _449  and  _450
REMARK  178  A    between atoms: _449  and  _452
REMARK  179  A    between atoms: _452  and  _453
REMARK  180  A    between atoms: _458  and  _460
REMARK  181  A    between atoms: _460  and  _461
REMARK  182  A    between atoms: _460  and  _463
REMARK  183  A    between atoms: _463  and  _464
REMARK  184  A    between atoms: _467  and  _469
REMARK  185  A    between atoms: _469  and  _470
REMARK  186  A    between atoms: _472  and  _474
REMARK  187  A    between atoms: _474  and  _475
REMARK  188  A    between atoms: _474  and  _477
REMARK  189  A    between atoms: _477  and  _478
REMARK  190  A    between atoms: _478  and  _479
REMARK  191  A    between atoms: _484  and  _486
REMARK  192  A    between atoms: _486  and  _487
REMARK  193  A    between atoms: _490  and  _492
REMARK  194  A    between atoms: _492  and  _493
REMARK  195  A    between atoms: _492  and  _495
REMARK  196  A    between atoms: _495  and  _496
REMARK  197  A    between atoms: _499  and  _501
REMARK  198  A    between atoms: _501  and  _502
REMARK  199  A    between atoms: _505  and  _507
REMARK  200  A    between atoms: _507  and  _508
REMARK  201  A    between atoms: _507  and  _510
REMARK  202  A    between atoms: _510  and  _511
REMARK  203  A    between atoms: _516  and  _518
REMARK  204  A    between atoms: _518  and  _519
REMARK  205  A    between atoms: _518  and  _521
REMARK  206  A    between atoms: _521  and  _522
REMARK  207  A    between atoms: _527  and  _528
REMARK  208  A    between atoms: _530  and  _532
REMARK  209  A    between atoms: _532  and  _533
REMARK  210  A    between atoms: _532  and  _535
REMARK  211  A    between atoms: _535  and  _536
REMARK  212  A    between atoms: _539  and  _541
REMARK  213  A    between atoms: _541  and  _542
REMARK  214  A    between atoms: _541  and  _544
REMARK  215  A    between atoms: _544  and  _545
REMARK  216  A    between atoms: _547  and  _549
REMARK  217  A    between atoms: _549  and  _550
REMARK  218  A    between atoms: _549  and  _552
REMARK  219  A    between atoms: _552  and  _553
REMARK  220  A    between atoms: _559  and  _561
REMARK  221  A    between atoms: _561  and  _562
REMARK  222  A    between atoms: _561  and  _564
REMARK  223  A    between atoms: _564  and  _565
REMARK  224  A    between atoms: _565  and  _566
REMARK  225  A    between atoms: _569  and  _571
REMARK  226  A    between atoms: _571  and  _572
REMARK  227  A    between atoms: _571  and  _574
REMARK  228  A    between atoms: _574  and  _575
REMARK  229  A    between atoms: _575  and  _576
REMARK  230  A    between atoms: _576  and  _577
REMARK  231  A    between atoms: _577  and  _578
REMARK  232  A    between atoms: _582  and  _584
REMARK  233  A    between atoms: _584  and  _585
REMARK  234  A    between atoms: _584  and  _587
REMARK  235  A    between atoms: _587  and  _588
REMARK  236  A    between atoms: _590  and  _592
REMARK  237  A    between atoms: _592  and  _593
REMARK  238  A    between atoms: _592  and  _595
REMARK  239  A    between atoms: _595  and  _596
REMARK  240  A    between atoms: _596  and  _597
REMARK  241  A    between atoms: _597  and  _598
REMARK                            x       y       z     vdW  Elec       q    Type
REMARK                         _______ _______ _______ _____ _____    ______ ____
ROOT
ATOM      1  O   HOH     1      -6.369  15.440  10.958  0.00  0.00    +0.000 OA
ENDROOT
TORSDOF 0
REMARK  Name = ../refined-set-2016/3wgg/3wgg_pocket.pdb
REMARK  241 active torsions:
REMARK  status: ('A' for Active; 'I' for Inactive)
REMARK    1  A    between atoms: _1  and  _3
REMARK    2  A    between atoms: _3  and  _4
REMARK    3  A    between atoms: _3  and  _6
REMARK    4  A    between atoms: _6  and  _7
REMARK    5  A    between atoms: _10  and  _12
REMARK    6  A    between atoms: _12  and  _13
REMARK    7  A    between atoms: _12  and  _15
REMARK    8  A    between atoms: _15  and  _16
REMARK    9  A    between atoms: _19  and  _21
REMARK   10  A    between atoms: _21  and  _22
REMARK   11  A    between atoms: _24  and  _26
REMARK   12  A    between atoms: _26  and  _27
REMARK   13  A    between atoms: _30  and  _32
REMARK   14  A    between atoms: _32  and  _33
REMARK   15  A    between atoms: _35  and  _37
REMARK   16  A    between atoms: _37  and  _38
REMARK   17  A    between atoms: _37  and  _40
REMARK   18  A    between atoms: _40  and  _41
REMARK   19  A    between atoms: _46  and  _48
REMARK   20  A    between atoms: _48  and  _49
REMARK   21  A    between atoms: _48  and  _51
REMARK   22  A    between atoms: _51  and  _52
REMARK   23  A    between atoms: _55  and  _57
REMARK   24  A    between atoms: _57  and  _58
REMARK   25  A    between atoms: _60  and  _62
REMARK   26  A    between atoms: _62  and  _63
REMARK   27  A    between atoms: _62  and  _65
REMARK   28  A    between atoms: _65  and  _66
REMARK   29  A    between atoms: _66  and  _67
REMARK   30  A    between atoms: _72  and  _74
REMARK   31  A    between atoms: _74  and  _75
REMARK   32  A    between atoms: _78  and  _80
REMARK   33  A    between atoms: _80  and  _81
REMARK   34  A    between atoms: _80  and  _83
REMARK   35  A    between atoms: _83  and  _84
REMARK   36  A    between atoms: _87  and  _89
REMARK   37  A    between atoms: _89  and  _90
REMARK   38  A    between atoms: _89  and  _92
REMARK   39  A    between atoms: _92  and  _93
REMARK   40  A    between atoms: _96  and  _98
REMARK   41  A    between atoms: _98  and  _99
REMARK   42  A    between atoms: _98  and  _101
REMARK   43  A    between atoms: _101  and  _102
REMARK   44  A    between atoms: _108  and  _110
REMARK   45  A    between atoms: _110  and  _111
REMARK   46  A    between atoms: _110  and  _113
REMARK   47  A    between atoms: _113  and  _114
REMARK   48  A    between atoms: _117  and  _119
REMARK   49  A    between atoms: _119  and  _120
REMARK   50  A    between atoms: _119  and  _122
REMARK   51  A    between atoms: _122  and  _123
REMARK   52  A    between atoms: _126  and  _128
REMARK   53  A    between atoms: _128  and  _129
REMARK   54  A    between atoms: _128  and  _131
REMARK   55  A    between atoms: _131  and  _132
REMARK   56  A    between atoms: _138  and  _139
REMARK   57  A    between atoms: _144  and  _146
REMARK   58  A    between atoms: _146  and  _147
REMARK   59  A    between atoms: _146  and  _149
REMARK   60  A    between atoms: _149  and  _150
REMARK   61  A    between atoms: _150  and  _151
REMARK   62  A    between atoms: _151  and  _152
REMARK   63  A    between atoms: _161  and  _163
REMARK   64  A    between atoms: _163  and  _164
REMARK   65  A    between atoms: _163  and  _166
REMARK   66  A    between atoms: _166  and  _167
REMARK   67  A    between atoms: _170  and  _172
REMARK   68  A    between atoms: _172  and  _173
REMARK   69  A    between atoms: _172  and  _175
REMARK   70  A    between atoms: _175  and  _176
REMARK   71  A    between atoms: _182  and  _184
REMARK   72  A    between atoms: _184  and  _185
REMARK   73  A    between atoms: _184  and  _187
REMARK   74  A    between atoms: _190  and  _192
REMARK   75  A    between atoms: _192  and  _193
REMARK   76  A    between atoms: _192  and  _195
REMARK   77  A    between atoms: _195  and  _196
REMARK   78  A    between atoms: _196  and  _197
REMARK   79  A    between atoms: _199  and  _201
REMARK   80  A    between atoms: _201  and  _202
REMARK   81  A    between atoms: _201  and  _204
REMARK   82  A    between atoms: _204  and  _205
REMARK   83  A    between atoms: _208  and  _210
REMARK   84  A    between atoms: _210  and  _211
REMARK   85  A    between atoms: _210  and  _213
REMARK   86  A    between atoms: _216  and  _218
REMARK   87  A    between atoms: _218  and  _219
REMARK   88  A    between atoms: _218  and  _221
REMARK   89  A    between atoms: _221  and  _222
REMARK   90  A    between atoms: _222  and  _223
REMARK   91  A    between atoms: _226  and  _228
REMARK   92  A    between atoms: _228  and  _229
REMARK   93  A    between atoms: _228  and  _231
REMARK   94  A    between atoms: _234  and  _236
REMARK   95  A    between atoms: _236  and  _237
REMARK   96  A    between atoms: _236  and  _239
REMARK   97  A    between atoms: _239  and  _240
REMARK   98  A    between atoms: _243  and  _245
REMARK   99  A    between atoms: _245  and  _246
REMARK  100  A    between atoms: _245  and  _248
REMARK  101  A    between atoms: _250  and  _252
REMARK  102  A    between atoms: _252  and  _253
REMARK  103  A    between atoms: _252  and  _255
REMARK  104  A    between atoms: _255  and  _256
REMARK  105  A    between atoms: _260  and  _261
REMARK  106  A    between atoms: _266  and  _268
REMARK  107  A    between atoms: _268  and  _269
REMARK  108  A    between atoms: _268  and  _271
REMARK  109  A    between atoms: _271  and  _272
REMARK  110  A    between atoms: _272  and  _273
REMARK  111  A    between atoms: _273  and  _274
REMARK  112  A    between atoms: _274  and  _275
REMARK  113  A    between atoms: _279  and  _281
REMARK  114  A    between atoms: _281  and  _282
REMARK  115  A    between atoms: _281  and  _284
REMARK  116  A    between atoms: _284  and  _285
REMARK  117  A    between atoms: _288  and  _290
REMARK  118  A    between atoms: _290  and  _291
REMARK  119  A    between atoms: _290  and  _293
REMARK  120  A    between atoms: _293  and  _294
REMARK  121  A    between atoms: _299  and  _301
REMARK  122  A    between atoms: _301  and  _302
REMARK  123  A    between atoms: _305  and  _307
REMARK  124  A    between atoms: _307  and  _308
REMARK  125  A    between atoms: _307  and  _310
REMARK  126  A    between atoms: _310  and  _311
REMARK  127  A    between atoms: _316  and  _317
REMARK  128  A    between atoms: _319  and  _321
REMARK  129  A    between atoms: _321  and  _322
REMARK  130  A    between atoms: _321  and  _324
REMARK  131  A    between atoms: _324  and  _325
REMARK  132  A    between atoms: _328  and  _330
REMARK  133  A    between atoms: _330  and  _331
REMARK  134  A    between atoms: _334  and  _336
REMARK  135  A    between atoms: _336  and  _337
REMARK  136  A    between atoms: _336  and  _339
REMARK  137  A    between atoms: _339  and  _340
REMARK  138  A    between atoms: _340  and  _341
REMARK  139  A    between atoms: _341  and  _342
REMARK  140  A    between atoms: _351  and  _353
REMARK  141  A    between atoms: _353  and  _354
REMARK  142  A    between atoms: _353  and  _356
REMARK  143  A    between atoms: _356  and  _357
REMARK  144  A    between atoms: _362  and  _364
REMARK  145  A    between atoms: _364  and  _365
REMARK  146  A    between atoms: _364  and  _367
REMARK  147  A    between atoms: _367  and  _368
REMARK  148  A    between atoms: _374  and  _376
REMARK  149  A    between atoms: _376  and  _377
REMARK  150  A    between atoms: _376  and  _379
REMARK  151  A    between atoms: _379  and  _380
REMARK  152  A    between atoms: _384  and  _385
REMARK  153  A    between atoms: _390  and  _392
REMARK  154  A    between atoms: _392  and  _393
REMARK  155  A    between atoms: _392  and  _395
REMARK  156  A    between atoms: _395  and  _396
REMARK  157  A    between atoms: _399  and  _401
REMARK  158  A    between atoms: _401  and  _402
REMARK  159  A    between atoms: _401  and  _404
REMARK  160  A    between atoms: _407  and  _409
REMARK  161  A    between atoms: _409  and  _410
REMARK  162  A    between atoms: _409  and  _412
REMARK  163  A    between atoms: _412  and  _413
REMARK  164  A    between atoms: _418  and  _420
REMARK  165  A    between atoms: _420  and  _421
REMARK  166  A    between atoms: _420  and  _423
REMARK  167  A    between atoms: _423  and  _424
REMARK  168  A    between atoms: _427  and  _429
REMARK  169  A    between atoms: _429  and  _430
REMARK  170  A    between atoms: _429  and  _432
REMARK  171  A    between atoms: _432  and  _433
REMARK  172  A    between atoms: _435  and  _437
REMARK  173  A    between atoms: _437  and  _438
REMARK  174  A    between atoms: _437  and  _440
REMARK  175  A    between atoms: _440  and  _441
REMARK  176  A    between atoms: _447  and  _449
REMARK  177  A    between atoms: _449  and  _450
REMARK  178  A    between atoms: _449  and  _452
REMARK  179  A    between atoms: _452  and  _453
REMARK  180  A    between atoms: _458  and  _460
REMARK  181  A    between atoms: _460  and  _461
REMARK  182  A    between atoms: _460  and  _463
REMARK  183  A    between atoms: _463  and  _464
REMARK  184  A    between atoms: _467  and  _469
REMARK  185  A    between atoms: _469  and  _470
REMARK  186  A    between atoms: _472  and  _474
REMARK  187  A    between atoms: _474  and  _475
REMARK  188  A    between atoms: _474  and  _477
REMARK  189  A    between atoms: _477  and  _478
REMARK  190  A    between atoms: _478  and  _479
REMARK  191  A    between atoms: _484  and  _486
REMARK  192  A    between atoms: _486  and  _487
REMARK  193  A    between atoms: _490  and  _492
REMARK  194  A    between atoms: _492  and  _493
REMARK  195  A    between atoms: _492  and  _495
REMARK  196  A    between atoms: _495  and  _496
REMARK  197  A    between atoms: _499  and  _501
REMARK  198  A    between atoms: _501  and  _502
REMARK  199  A    between atoms: _505  and  _507
REMARK  200  A    between atoms: _507  and  _508
REMARK  201  A    between atoms: _507  and  _510
REMARK  202  A    between atoms: _510  and  _511
REMARK  203  A    between atoms: _516  and  _518
REMARK  204  A    between atoms: _518  and  _519
REMARK  205  A    between atoms: _518  and  _521
REMARK  206  A    between atoms: _521  and  _522
REMARK  207  A    between atoms: _527  and  _528
REMARK  208  A    between atoms: _530  and  _532
REMARK  209  A    between atoms: _532  and  _533
REMARK  210  A    between atoms: _532  and  _535
REMARK  211  A    between atoms: _535  and  _536
REMARK  212  A    between atoms: _539  and  _541
REMARK  213  A    between atoms: _541  and  _542
REMARK  214  A    between atoms: _541  and  _544
REMARK  215  A    between atoms: _544  and  _545
REMARK  216  A    between atoms: _547  and  _549
REMARK  217  A    between atoms: _549  and  _550
REMARK  218  A    between atoms: _549  and  _552
REMARK  219  A    between atoms: _552  and  _553
REMARK  220  A    between atoms: _559  and  _561
REMARK  221  A    between atoms: _561  and  _562
REMARK  222  A    between atoms: _561  and  _564
REMARK  223  A    between atoms: _564  and  _565
REMARK  224  A    between atoms: _565  and  _566
REMARK  225  A    between atoms: _569  and  _571
REMARK  226  A    between atoms: _571  and  _572
REMARK  227  A    between atoms: _571  and  _574
REMARK  228  A    between atoms: _574  and  _575
REMARK  229  A    between atoms: _575  and  _576
REMARK  230  A    between atoms: _576  and  _577
REMARK  231  A    between atoms: _577  and  _578
REMARK  232  A    between atoms: _582  and  _584
REMARK  233  A    between atoms: _584  and  _585
REMARK  234  A    between atoms: _584  and  _587
REMARK  235  A    between atoms: _587  and  _588
REMARK  236  A    between atoms: _590  and  _592
REMARK  237  A    between atoms: _592  and  _593
REMARK  238  A    between atoms: _592  and  _595
REMARK  239  A    between atoms: _595  and  _596
REMARK  240  A    between atoms: _596  and  _597
REMARK  241  A    between atoms: _597  and  _598
REMARK                            x       y       z     vdW  Elec       q    Type
REMARK                         _______ _______ _______ _____ _____    ______ ____
ROOT
ATOM      1  O   HOH     1       2.291  21.525  22.563  0.00  0.00    +0.000 OA
ENDROOT
TORSDOF 0
REMARK  Name = ../refined-set-2016/3wgg/3wgg_pocket.pdb
REMARK  241 active torsions:
REMARK  status: ('A' for Active; 'I' for Inactive)
REMARK    1  A    between atoms: _1  and  _3
REMARK    2  A    between atoms: _3  and  _4
REMARK    3  A    between atoms: _3  and  _6
REMARK    4  A    between atoms: _6  and  _7
REMARK    5  A    between atoms: _10  and  _12
REMARK    6  A    between atoms: _12  and  _13
REMARK    7  A    between atoms: _12  and  _15
REMARK    8  A    between atoms: _15  and  _16
REMARK    9  A    between atoms: _19  and  _21
REMARK   10  A    between atoms: _21  and  _22
REMARK   11  A    between atoms: _24  and  _26
REMARK   12  A    between atoms: _26  and  _27
REMARK   13  A    between atoms: _30  and  _32
REMARK   14  A    between atoms: _32  and  _33
REMARK   15  A    between atoms: _35  and  _37
REMARK   16  A    between atoms: _37  and  _38
REMARK   17  A    between atoms: _37  and  _40
REMARK   18  A    between atoms: _40  and  _41
REMARK   19  A    between atoms: _46  and  _48
REMARK   20  A    between atoms: _48  and  _49
REMARK   21  A    between atoms: _48  and  _51
REMARK   22  A    between atoms: _51  and  _52
REMARK   23  A    between atoms: _55  and  _57
REMARK   24  A    between atoms: _57  and  _58
REMARK   25  A    between atoms: _60  and  _62
REMARK   26  A    between atoms: _62  and  _63
REMARK   27  A    between atoms: _62  and  _65
REMARK   28  A    between atoms: _65  and  _66
REMARK   29  A    between atoms: _66  and  _67
REMARK   30  A    between atoms: _72  and  _74
REMARK   31  A    between atoms: _74  and  _75
REMARK   32  A    between atoms: _78  and  _80
REMARK   33  A    between atoms: _80  and  _81
REMARK   34  A    between atoms: _80  and  _83
REMARK   35  A    between atoms: _83  and  _84
REMARK   36  A    between atoms: _87  and  _89
REMARK   37  A    between atoms: _89  and  _90
REMARK   38  A    between atoms: _89  and  _92
REMARK   39  A    between atoms: _92  and  _93
REMARK   40  A    between atoms: _96  and  _98
REMARK   41  A    between atoms: _98  and  _99
REMARK   42  A    between atoms: _98  and  _101
REMARK   43  A    between atoms: _101  and  _102
REMARK   44  A    between atoms: _108  and  _110
REMARK   45  A    between atoms: _110  and  _111
REMARK   46  A    between atoms: _110  and  _113
REMARK   47  A    between atoms: _113  and  _114
REMARK   48  A    between atoms: _117  and  _119
REMARK   49  A    between atoms: _119  and  _120
REMARK   50  A    between atoms: _119  and  _122
REMARK   51  A    between atoms: _122  and  _123
REMARK   52  A    between atoms: _126  and  _128
REMARK   53  A    between atoms: _128  and  _129
REMARK   54  A    between atoms: _128  and  _131
REMARK   55  A    between atoms: _131  and  _132
REMARK   56  A    between atoms: _138  and  _139
REMARK   57  A    between atoms: _144  and  _146
REMARK   58  A    between atoms: _146  and  _147
REMARK   59  A    between atoms: _146  and  _149
REMARK   60  A    between atoms: _149  and  _150
REMARK   61  A    between atoms: _150  and  _151
REMARK   62  A    between atoms: _151  and  _152
REMARK   63  A    between atoms: _161  and  _163
REMARK   64  A    between atoms: _163  and  _164
REMARK   65  A    between atoms: _163  and  _166
REMARK   66  A    between atoms: _166  and  _167
REMARK   67  A    between atoms: _170  and  _172
REMARK   68  A    between atoms: _172  and  _173
REMARK   69  A    between atoms: _172  and  _175
REMARK   70  A    between atoms: _175  and  _176
REMARK   71  A    between atoms: _182  and  _184
REMARK   72  A    between atoms: _184  and  _185
REMARK   73  A    between atoms: _184  and  _187
REMARK   74  A    between atoms: _190  and  _192
REMARK   75  A    between atoms: _192  and  _193
REMARK   76  A    between atoms: _192  and  _195
REMARK   77  A    between atoms: _195  and  _196
REMARK   78  A    between atoms: _196  and  _197
REMARK   79  A    between atoms: _199  and  _201
REMARK   80  A    between atoms: _201  and  _202
REMARK   81  A    between atoms: _201  and  _204
REMARK   82  A    between atoms: _204  and  _205
REMARK   83  A    between atoms: _208  and  _210
REMARK   84  A    between atoms: _210  and  _211
REMARK   85  A    between atoms: _210  and  _213
REMARK   86  A    between atoms: _216  and  _218
REMARK   87  A    between atoms: _218  and  _219
REMARK   88  A    between atoms: _218  and  _221
REMARK   89  A    between atoms: _221  and  _222
REMARK   90  A    between atoms: _222  and  _223
REMARK   91  A    between atoms: _226  and  _228
REMARK   92  A    between atoms: _228  and  _229
REMARK   93  A    between atoms: _228  and  _231
REMARK   94  A    between atoms: _234  and  _236
REMARK   95  A    between atoms: _236  and  _237
REMARK   96  A    between atoms: _236  and  _239
REMARK   97  A    between atoms: _239  and  _240
REMARK   98  A    between atoms: _243  and  _245
REMARK   99  A    between atoms: _245  and  _246
REMARK  100  A    between atoms: _245  and  _248
REMARK  101  A    between atoms: _250  and  _252
REMARK  102  A    between atoms: _252  and  _253
REMARK  103  A    between atoms: _252  and  _255
REMARK  104  A    between atoms: _255  and  _256
REMARK  105  A    between atoms: _260  and  _261
REMARK  106  A    between atoms: _266  and  _268
REMARK  107  A    between atoms: _268  and  _269
REMARK  108  A    between atoms: _268  and  _271
REMARK  109  A    between atoms: _271  and  _272
REMARK  110  A    between atoms: _272  and  _273
REMARK  111  A    between atoms: _273  and  _274
REMARK  112  A    between atoms: _274  and  _275
REMARK  113  A    between atoms: _279  and  _281
REMARK  114  A    between atoms: _281  and  _282
REMARK  115  A    between atoms: _281  and  _284
REMARK  116  A    between atoms: _284  and  _285
REMARK  117  A    between atoms: _288  and  _290
REMARK  118  A    between atoms: _290  and  _291
REMARK  119  A    between atoms: _290  and  _293
REMARK  120  A    between atoms: _293  and  _294
REMARK  121  A    between atoms: _299  and  _301
REMARK  122  A    between atoms: _301  and  _302
REMARK  123  A    between atoms: _305  and  _307
REMARK  124  A    between atoms: _307  and  _308
REMARK  125  A    between atoms: _307  and  _310
REMARK  126  A    between atoms: _310  and  _311
REMARK  127  A    between atoms: _316  and  _317
REMARK  128  A    between atoms: _319  and  _321
REMARK  129  A    between atoms: _321  and  _322
REMARK  130  A    between atoms: _321  and  _324
REMARK  131  A    between atoms: _324  and  _325
REMARK  132  A    between atoms: _328  and  _330
REMARK  133  A    between atoms: _330  and  _331
REMARK  134  A    between atoms: _334  and  _336
REMARK  135  A    between atoms: _336  and  _337
REMARK  136  A    between atoms: _336  and  _339
REMARK  137  A    between atoms: _339  and  _340
REMARK  138  A    between atoms: _340  and  _341
REMARK  139  A    between atoms: _341  and  _342
REMARK  140  A    between atoms: _351  and  _353
REMARK  141  A    between atoms: _353  and  _354
REMARK  142  A    between atoms: _353  and  _356
REMARK  143  A    between atoms: _356  and  _357
REMARK  144  A    between atoms: _362  and  _364
REMARK  145  A    between atoms: _364  and  _365
REMARK  146  A    between atoms: _364  and  _367
REMARK  147  A    between atoms: _367  and  _368
REMARK  148  A    between atoms: _374  and  _376
REMARK  149  A    between atoms: _376  and  _377
REMARK  150  A    between atoms: _376  and  _379
REMARK  151  A    between atoms: _379  and  _380
REMARK  152  A    between atoms: _384  and  _385
REMARK  153  A    between atoms: _390  and  _392
REMARK  154  A    between atoms: _392  and  _393
REMARK  155  A    between atoms: _392  and  _395
REMARK  156  A    between atoms: _395  and  _396
REMARK  157  A    between atoms: _399  and  _401
REMARK  158  A    between atoms: _401  and  _402
REMARK  159  A    between atoms: _401  and  _404
REMARK  160  A    between atoms: _407  and  _409
REMARK  161  A    between atoms: _409  and  _410
REMARK  162  A    between atoms: _409  and  _412
REMARK  163  A    between atoms: _412  and  _413
REMARK  164  A    between atoms: _418  and  _420
REMARK  165  A    between atoms: _420  and  _421
REMARK  166  A    between atoms: _420  and  _423
REMARK  167  A    between atoms: _423  and  _424
REMARK  168  A    between atoms: _427  and  _429
REMARK  169  A    between atoms: _429  and  _430
REMARK  170  A    between atoms: _429  and  _432
REMARK  171  A    between atoms: _432  and  _433
REMARK  172  A    between atoms: _435  and  _437
REMARK  173  A    between atoms: _437  and  _438
REMARK  174  A    between atoms: _437  and  _440
REMARK  175  A    between atoms: _440  and  _441
REMARK  176  A    between atoms: _447  and  _449
REMARK  177  A    between atoms: _449  and  _450
REMARK  178  A    between atoms: _449  and  _452
REMARK  179  A    between atoms: _452  and  _453
REMARK  180  A    between atoms: _458  and  _460
REMARK  181  A    between atoms: _460  and  _461
REMARK  182  A    between atoms: _460  and  _463
REMARK  183  A    between atoms: _463  and  _464
REMARK  184  A    between atoms: _467  and  _469
REMARK  185  A    between atoms: _469  and  _470
REMARK  186  A    between atoms: _472  and  _474
REMARK  187  A    between atoms: _474  and  _475
REMARK  188  A    between atoms: _474  and  _477
REMARK  189  A    between atoms: _477  and  _478
REMARK  190  A    between atoms: _478  and  _479
REMARK  191  A    between atoms: _484  and  _486
REMARK  192  A    between atoms: _486  and  _487
REMARK  193  A    between atoms: _490  and  _492
REMARK  194  A    between atoms: _492  and  _493
REMARK  195  A    between atoms: _492  and  _495
REMARK  196  A    between atoms: _495  and  _496
REMARK  197  A    between atoms: _499  and  _501
REMARK  198  A    between atoms: _501  and  _502
REMARK  199  A    between atoms: _505  and  _507
REMARK  200  A    between atoms: _507  and  _508
REMARK  201  A    between atoms: _507  and  _510
REMARK  202  A    between atoms: _510  and  _511
REMARK  203  A    between atoms: _516  and  _518
REMARK  204  A    between atoms: _518  and  _519
REMARK  205  A    between atoms: _518  and  _521
REMARK  206  A    between atoms: _521  and  _522
REMARK  207  A    between atoms: _527  and  _528
REMARK  208  A    between atoms: _530  and  _532
REMARK  209  A    between atoms: _532  and  _533
REMARK  210  A    between atoms: _532  and  _535
REMARK  211  A    between atoms: _535  and  _536
REMARK  212  A    between atoms: _539  and  _541
REMARK  213  A    between atoms: _541  and  _542
REMARK  214  A    between atoms: _541  and  _544
REMARK  215  A    between atoms: _544  and  _545
REMARK  216  A    between atoms: _547  and  _549
REMARK  217  A    between atoms: _549  and  _550
REMARK  218  A    between atoms: _549  and  _552
REMARK  219  A    between atoms: _552  and  _553
REMARK  220  A    between atoms: _559  and  _561
REMARK  221  A    between atoms: _561  and  _562
REMARK  222  A    between atoms: _561  and  _564
REMARK  223  A    between atoms: _564  and  _565
REMARK  224  A    between atoms: _565  and  _566
REMARK  225  A    between atoms: _569  and  _571
REMARK  226  A    between atoms: _571  and  _572
REMARK  227  A    between atoms: _571  and  _574
REMARK  228  A    between atoms: _574  and  _575
REMARK  229  A    between atoms: _575  and  _576
REMARK  230  A    between atoms: _576  and  _577
REMARK  231  A    between atoms: _577  and  _578
REMARK  232  A    between atoms: _582  and  _584
REMARK  233  A    between atoms: _584  and  _585
REMARK  234  A    between atoms: _584  and  _587
REMARK  235  A    between atoms: _587  and  _588
REMARK  236  A    between atoms: _590  and  _592
REMARK  237  A    between atoms: _592  and  _593
REMARK  238  A    between atoms: _592  and  _595
REMARK  239  A    between atoms: _595  and  _596
REMARK  240  A    between atoms: _596  and  _597
REMARK  241  A    between atoms: _597  and  _598
REMARK                            x       y       z     vdW  Elec       q    Type
REMARK                         _______ _______ _______ _____ _____    ______ ____
ROOT
ATOM      1  O   HOH     1      -7.197  18.641   8.423  0.00  0.00    +0.000 OA
ENDROOT
TORSDOF 0
REMARK  Name = ../refined-set-2016/3wgg/3wgg_pocket.pdb
REMARK  241 active torsions:
REMARK  status: ('A' for Active; 'I' for Inactive)
REMARK    1  A    between atoms: _1  and  _3
REMARK    2  A    between atoms: _3  and  _4
REMARK    3  A    between atoms: _3  and  _6
REMARK    4  A    between atoms: _6  and  _7
REMARK    5  A    between atoms: _10  and  _12
REMARK    6  A    between atoms: _12  and  _13
REMARK    7  A    between atoms: _12  and  _15
REMARK    8  A    between atoms: _15  and  _16
REMARK    9  A    between atoms: _19  and  _21
REMARK   10  A    between atoms: _21  and  _22
REMARK   11  A    between atoms: _24  and  _26
REMARK   12  A    between atoms: _26  and  _27
REMARK   13  A    between atoms: _30  and  _32
REMARK   14  A    between atoms: _32  and  _33
REMARK   15  A    between atoms: _35  and  _37
REMARK   16  A    between atoms: _37  and  _38
REMARK   17  A    between atoms: _37  and  _40
REMARK   18  A    between atoms: _40  and  _41
REMARK   19  A    between atoms: _46  and  _48
REMARK   20  A    between atoms: _48  and  _49
REMARK   21  A    between atoms: _48  and  _51
REMARK   22  A    between atoms: _51  and  _52
REMARK   23  A    between atoms: _55  and  _57
REMARK   24  A    between atoms: _57  and  _58
REMARK   25  A    between atoms: _60  and  _62
REMARK   26  A    between atoms: _62  and  _63
REMARK   27  A    between atoms: _62  and  _65
REMARK   28  A    between atoms: _65  and  _66
REMARK   29  A    between atoms: _66  and  _67
REMARK   30  A    between atoms: _72  and  _74
REMARK   31  A    between atoms: _74  and  _75
REMARK   32  A    between atoms: _78  and  _80
REMARK   33  A    between atoms: _80  and  _81
REMARK   34  A    between atoms: _80  and  _83
REMARK   35  A    between atoms: _83  and  _84
REMARK   36  A    between atoms: _87  and  _89
REMARK   37  A    between atoms: _89  and  _90
REMARK   38  A    between atoms: _89  and  _92
REMARK   39  A    between atoms: _92  and  _93
REMARK   40  A    between atoms: _96  and  _98
REMARK   41  A    between atoms: _98  and  _99
REMARK   42  A    between atoms: _98  and  _101
REMARK   43  A    between atoms: _101  and  _102
REMARK   44  A    between atoms: _108  and  _110
REMARK   45  A    between atoms: _110  and  _111
REMARK   46  A    between atoms: _110  and  _113
REMARK   47  A    between atoms: _113  and  _114
REMARK   48  A    between atoms: _117  and  _119
REMARK   49  A    between atoms: _119  and  _120
REMARK   50  A    between atoms: _119  and  _122
REMARK   51  A    between atoms: _122  and  _123
REMARK   52  A    between atoms: _126  and  _128
REMARK   53  A    between atoms: _128  and  _129
REMARK   54  A    between atoms: _128  and  _131
REMARK   55  A    between atoms: _131  and  _132
REMARK   56  A    between atoms: _138  and  _139
REMARK   57  A    between atoms: _144  and  _146
REMARK   58  A    between atoms: _146  and  _147
REMARK   59  A    between atoms: _146  and  _149
REMARK   60  A    between atoms: _149  and  _150
REMARK   61  A    between atoms: _150  and  _151
REMARK   62  A    between atoms: _151  and  _152
REMARK   63  A    between atoms: _161  and  _163
REMARK   64  A    between atoms: _163  and  _164
REMARK   65  A    between atoms: _163  and  _166
REMARK   66  A    between atoms: _166  and  _167
REMARK   67  A    between atoms: _170  and  _172
REMARK   68  A    between atoms: _172  and  _173
REMARK   69  A    between atoms: _172  and  _175
REMARK   70  A    between atoms: _175  and  _176
REMARK   71  A    between atoms: _182  and  _184
REMARK   72  A    between atoms: _184  and  _185
REMARK   73  A    between atoms: _184  and  _187
REMARK   74  A    between atoms: _190  and  _192
REMARK   75  A    between atoms: _192  and  _193
REMARK   76  A    between atoms: _192  and  _195
REMARK   77  A    between atoms: _195  and  _196
REMARK   78  A    between atoms: _196  and  _197
REMARK   79  A    between atoms: _199  and  _201
REMARK   80  A    between atoms: _201  and  _202
REMARK   81  A    between atoms: _201  and  _204
REMARK   82  A    between atoms: _204  and  _205
REMARK   83  A    between atoms: _208  and  _210
REMARK   84  A    between atoms: _210  and  _211
REMARK   85  A    between atoms: _210  and  _213
REMARK   86  A    between atoms: _216  and  _218
REMARK   87  A    between atoms: _218  and  _219
REMARK   88  A    between atoms: _218  and  _221
REMARK   89  A    between atoms: _221  and  _222
REMARK   90  A    between atoms: _222  and  _223
REMARK   91  A    between atoms: _226  and  _228
REMARK   92  A    between atoms: _228  and  _229
REMARK   93  A    between atoms: _228  and  _231
REMARK   94  A    between atoms: _234  and  _236
REMARK   95  A    between atoms: _236  and  _237
REMARK   96  A    between atoms: _236  and  _239
REMARK   97  A    between atoms: _239  and  _240
REMARK   98  A    between atoms: _243  and  _245
REMARK   99  A    between atoms: _245  and  _246
REMARK  100  A    between atoms: _245  and  _248
REMARK  101  A    between atoms: _250  and  _252
REMARK  102  A    between atoms: _252  and  _253
REMARK  103  A    between atoms: _252  and  _255
REMARK  104  A    between atoms: _255  and  _256
REMARK  105  A    between atoms: _260  and  _261
REMARK  106  A    between atoms: _266  and  _268
REMARK  107  A    between atoms: _268  and  _269
REMARK  108  A    between atoms: _268  and  _271
REMARK  109  A    between atoms: _271  and  _272
REMARK  110  A    between atoms: _272  and  _273
REMARK  111  A    between atoms: _273  and  _274
REMARK  112  A    between atoms: _274  and  _275
REMARK  113  A    between atoms: _279  and  _281
REMARK  114  A    between atoms: _281  and  _282
REMARK  115  A    between atoms: _281  and  _284
REMARK  116  A    between atoms: _284  and  _285
REMARK  117  A    between atoms: _288  and  _290
REMARK  118  A    between atoms: _290  and  _291
REMARK  119  A    between atoms: _290  and  _293
REMARK  120  A    between atoms: _293  and  _294
REMARK  121  A    between atoms: _299  and  _301
REMARK  122  A    between atoms: _301  and  _302
REMARK  123  A    between atoms: _305  and  _307
REMARK  124  A    between atoms: _307  and  _308
REMARK  125  A    between atoms: _307  and  _310
REMARK  126  A    between atoms: _310  and  _311
REMARK  127  A    between atoms: _316  and  _317
REMARK  128  A    between atoms: _319  and  _321
REMARK  129  A    between atoms: _321  and  _322
REMARK  130  A    between atoms: _321  and  _324
REMARK  131  A    between atoms: _324  and  _325
REMARK  132  A    between atoms: _328  and  _330
REMARK  133  A    between atoms: _330  and  _331
REMARK  134  A    between atoms: _334  and  _336
REMARK  135  A    between atoms: _336  and  _337
REMARK  136  A    between atoms: _336  and  _339
REMARK  137  A    between atoms: _339  and  _340
REMARK  138  A    between atoms: _340  and  _341
REMARK  139  A    between atoms: _341  and  _342
REMARK  140  A    between atoms: _351  and  _353
REMARK  141  A    between atoms: _353  and  _354
REMARK  142  A    between atoms: _353  and  _356
REMARK  143  A    between atoms: _356  and  _357
REMARK  144  A    between atoms: _362  and  _364
REMARK  145  A    between atoms: _364  and  _365
REMARK  146  A    between atoms: _364  and  _367
REMARK  147  A    between atoms: _367  and  _368
REMARK  148  A    between atoms: _374  and  _376
REMARK  149  A    between atoms: _376  and  _377
REMARK  150  A    between atoms: _376  and  _379
REMARK  151  A    between atoms: _379  and  _380
REMARK  152  A    between atoms: _384  and  _385
REMARK  153  A    between atoms: _390  and  _392
REMARK  154  A    between atoms: _392  and  _393
REMARK  155  A    between atoms: _392  and  _395
REMARK  156  A    between atoms: _395  and  _396
REMARK  157  A    between atoms: _399  and  _401
REMARK  158  A    between atoms: _401  and  _402
REMARK  159  A    between atoms: _401  and  _404
REMARK  160  A    between atoms: _407  and  _409
REMARK  161  A    between atoms: _409  and  _410
REMARK  162  A    between atoms: _409  and  _412
REMARK  163  A    between atoms: _412  and  _413
REMARK  164  A    between atoms: _418  and  _420
REMARK  165  A    between atoms: _420  and  _421
REMARK  166  A    between atoms: _420  and  _423
REMARK  167  A    between atoms: _423  and  _424
REMARK  168  A    between atoms: _427  and  _429
REMARK  169  A    between atoms: _429  and  _430
REMARK  170  A    between atoms: _429  and  _432
REMARK  171  A    between atoms: _432  and  _433
REMARK  172  A    between atoms: _435  and  _437
REMARK  173  A    between atoms: _437  and  _438
REMARK  174  A    between atoms: _437  and  _440
REMARK  175  A    between atoms: _440  and  _441
REMARK  176  A    between atoms: _447  and  _449
REMARK  177  A    between atoms: _449  and  _450
REMARK  178  A    between atoms: _449  and  _452
REMARK  179  A    between atoms: _452  and  _453
REMARK  180  A    between atoms: _458  and  _460
REMARK  181  A    between atoms: _460  and  _461
REMARK  182  A    between atoms: _460  and  _463
REMARK  183  A    between atoms: _463  and  _464
REMARK  184  A    between atoms: _467  and  _469
REMARK  185  A    between atoms: _469  and  _470
REMARK  186  A    between atoms: _472  and  _474
REMARK  187  A    between atoms: _474  and  _475
REMARK  188  A    between atoms: _474  and  _477
REMARK  189  A    between atoms: _477  and  _478
REMARK  190  A    between atoms: _478  and  _479
REMARK  191  A    between atoms: _484  and  _486
REMARK  192  A    between atoms: _486  and  _487
REMARK  193  A    between atoms: _490  and  _492
REMARK  194  A    between atoms: _492  and  _493
REMARK  195  A    between atoms: _492  and  _495
REMARK  196  A    between atoms: _495  and  _496
REMARK  197  A    between atoms: _499  and  _501
REMARK  198  A    between atoms: _501  and  _502
REMARK  199  A    between atoms: _505  and  _507
REMARK  200  A    between atoms: _507  and  _508
REMARK  201  A    between atoms: _507  and  _510
REMARK  202  A    between atoms: _510  and  _511
REMARK  203  A    between atoms: _516  and  _518
REMARK  204  A    between atoms: _518  and  _519
REMARK  205  A    between atoms: _518  and  _521
REMARK  206  A    between atoms: _521  and  _522
REMARK  207  A    between atoms: _527  and  _528
REMARK  208  A    between atoms: _530  and  _532
REMARK  209  A    between atoms: _532  and  _533
REMARK  210  A    between atoms: _532  and  _535
REMARK  211  A    between atoms: _535  and  _536
REMARK  212  A    between atoms: _539  and  _541
REMARK  213  A    between atoms: _541  and  _542
REMARK  214  A    between atoms: _541  and  _544
REMARK  215  A    between atoms: _544  and  _545
REMARK  216  A    between atoms: _547  and  _549
REMARK  217  A    between atoms: _549  and  _550
REMARK  218  A    between atoms: _549  and  _552
REMARK  219  A    between atoms: _552  and  _553
REMARK  220  A    between atoms: _559  and  _561
REMARK  221  A    between atoms: _561  and  _562
REMARK  222  A    between atoms: _561  and  _564
REMARK  223  A    between atoms: _564  and  _565
REMARK  224  A    between atoms: _565  and  _566
REMARK  225  A    between atoms: _569  and  _571
REMARK  226  A    between atoms: _571  and  _572
REMARK  227  A    between atoms: _571  and  _574
REMARK  228  A    between atoms: _574  and  _575
REMARK  229  A    between atoms: _575  and  _576
REMARK  230  A    between atoms: _576  and  _577
REMARK  231  A    between atoms: _577  and  _578
REMARK  232  A    between atoms: _582  and  _584
REMARK  233  A    between atoms: _584  and  _585
REMARK  234  A    between atoms: _584  and  _587
REMARK  235  A    between atoms: _587  and  _588
REMARK  236  A    between atoms: _590  and  _592
REMARK  237  A    between atoms: _592  and  _593
REMARK  238  A    between atoms: _592  and  _595
REMARK  239  A    between atoms: _595  and  _596
REMARK  240  A    between atoms: _596  and  _597
REMARK  241  A    between atoms: _597  and  _598
REMARK                            x       y       z     vdW  Elec       q    Type
REMARK                         _______ _______ _______ _____ _____    ______ ____
ROOT
ATOM      1  O   HOH     1      -8.301  21.282  13.158  0.00  0.00    +0.000 OA
ENDROOT
TORSDOF 0
REMARK  Name = ../refined-set-2016/3wgg/3wgg_pocket.pdb
REMARK  241 active torsions:
REMARK  status: ('A' for Active; 'I' for Inactive)
REMARK    1  A    between atoms: _1  and  _3
REMARK    2  A    between atoms: _3  and  _4
REMARK    3  A    between atoms: _3  and  _6
REMARK    4  A    between atoms: _6  and  _7
REMARK    5  A    between atoms: _10  and  _12
REMARK    6  A    between atoms: _12  and  _13
REMARK    7  A    between atoms: _12  and  _15
REMARK    8  A    between atoms: _15  and  _16
REMARK    9  A    between atoms: _19  and  _21
REMARK   10  A    between atoms: _21  and  _22
REMARK   11  A    between atoms: _24  and  _26
REMARK   12  A    between atoms: _26  and  _27
REMARK   13  A    between atoms: _30  and  _32
REMARK   14  A    between atoms: _32  and  _33
REMARK   15  A    between atoms: _35  and  _37
REMARK   16  A    between atoms: _37  and  _38
REMARK   17  A    between atoms: _37  and  _40
REMARK   18  A    between atoms: _40  and  _41
REMARK   19  A    between atoms: _46  and  _48
REMARK   20  A    between atoms: _48  and  _49
REMARK   21  A    between atoms: _48  and  _51
REMARK   22  A    between atoms: _51  and  _52
REMARK   23  A    between atoms: _55  and  _57
REMARK   24  A    between atoms: _57  and  _58
REMARK   25  A    between atoms: _60  and  _62
REMARK   26  A    between atoms: _62  and  _63
REMARK   27  A    between atoms: _62  and  _65
REMARK   28  A    between atoms: _65  and  _66
REMARK   29  A    between atoms: _66  and  _67
REMARK   30  A    between atoms: _72  and  _74
REMARK   31  A    between atoms: _74  and  _75
REMARK   32  A    between atoms: _78  and  _80
REMARK   33  A    between atoms: _80  and  _81
REMARK   34  A    between atoms: _80  and  _83
REMARK   35  A    between atoms: _83  and  _84
REMARK   36  A    between atoms: _87  and  _89
REMARK   37  A    between atoms: _89  and  _90
REMARK   38  A    between atoms: _89  and  _92
REMARK   39  A    between atoms: _92  and  _93
REMARK   40  A    between atoms: _96  and  _98
REMARK   41  A    between atoms: _98  and  _99
REMARK   42  A    between atoms: _98  and  _101
REMARK   43  A    between atoms: _101  and  _102
REMARK   44  A    between atoms: _108  and  _110
REMARK   45  A    between atoms: _110  and  _111
REMARK   46  A    between atoms: _110  and  _113
REMARK   47  A    between atoms: _113  and  _114
REMARK   48  A    between atoms: _117  and  _119
REMARK   49  A    between atoms: _119  and  _120
REMARK   50  A    between atoms: _119  and  _122
REMARK   51  A    between atoms: _122  and  _123
REMARK   52  A    between atoms: _126  and  _128
REMARK   53  A    between atoms: _128  and  _129
REMARK   54  A    between atoms: _128  and  _131
REMARK   55  A    between atoms: _131  and  _132
REMARK   56  A    between atoms: _138  and  _139
REMARK   57  A    between atoms: _144  and  _146
REMARK   58  A    between atoms: _146  and  _147
REMARK   59  A    between atoms: _146  and  _149
REMARK   60  A    between atoms: _149  and  _150
REMARK   61  A    between atoms: _150  and  _151
REMARK   62  A    between atoms: _151  and  _152
REMARK   63  A    between atoms: _161  and  _163
REMARK   64  A    between atoms: _163  and  _164
REMARK   65  A    between atoms: _163  and  _166
REMARK   66  A    between atoms: _166  and  _167
REMARK   67  A    between atoms: _170  and  _172
REMARK   68  A    between atoms: _172  and  _173
REMARK   69  A    between atoms: _172  and  _175
REMARK   70  A    between atoms: _175  and  _176
REMARK   71  A    between atoms: _182  and  _184
REMARK   72  A    between atoms: _184  and  _185
REMARK   73  A    between atoms: _184  and  _187
REMARK   74  A    between atoms: _190  and  _192
REMARK   75  A    between atoms: _192  and  _193
REMARK   76  A    between atoms: _192  and  _195
REMARK   77  A    between atoms: _195  and  _196
REMARK   78  A    between atoms: _196  and  _197
REMARK   79  A    between atoms: _199  and  _201
REMARK   80  A    between atoms: _201  and  _202
REMARK   81  A    between atoms: _201  and  _204
REMARK   82  A    between atoms: _204  and  _205
REMARK   83  A    between atoms: _208  and  _210
REMARK   84  A    between atoms: _210  and  _211
REMARK   85  A    between atoms: _210  and  _213
REMARK   86  A    between atoms: _216  and  _218
REMARK   87  A    between atoms: _218  and  _219
REMARK   88  A    between atoms: _218  and  _221
REMARK   89  A    between atoms: _221  and  _222
REMARK   90  A    between atoms: _222  and  _223
REMARK   91  A    between atoms: _226  and  _228
REMARK   92  A    between atoms: _228  and  _229
REMARK   93  A    between atoms: _228  and  _231
REMARK   94  A    between atoms: _234  and  _236
REMARK   95  A    between atoms: _236  and  _237
REMARK   96  A    between atoms: _236  and  _239
REMARK   97  A    between atoms: _239  and  _240
REMARK   98  A    between atoms: _243  and  _245
REMARK   99  A    between atoms: _245  and  _246
REMARK  100  A    between atoms: _245  and  _248
REMARK  101  A    between atoms: _250  and  _252
REMARK  102  A    between atoms: _252  and  _253
REMARK  103  A    between atoms: _252  and  _255
REMARK  104  A    between atoms: _255  and  _256
REMARK  105  A    between atoms: _260  and  _261
REMARK  106  A    between atoms: _266  and  _268
REMARK  107  A    between atoms: _268  and  _269
REMARK  108  A    between atoms: _268  and  _271
REMARK  109  A    between atoms: _271  and  _272
REMARK  110  A    between atoms: _272  and  _273
REMARK  111  A    between atoms: _273  and  _274
REMARK  112  A    between atoms: _274  and  _275
REMARK  113  A    between atoms: _279  and  _281
REMARK  114  A    between atoms: _281  and  _282
REMARK  115  A    between atoms: _281  and  _284
REMARK  116  A    between atoms: _284  and  _285
REMARK  117  A    between atoms: _288  and  _290
REMARK  118  A    between atoms: _290  and  _291
REMARK  119  A    between atoms: _290  and  _293
REMARK  120  A    between atoms: _293  and  _294
REMARK  121  A    between atoms: _299  and  _301
REMARK  122  A    between atoms: _301  and  _302
REMARK  123  A    between atoms: _305  and  _307
REMARK  124  A    between atoms: _307  and  _308
REMARK  125  A    between atoms: _307  and  _310
REMARK  126  A    between atoms: _310  and  _311
REMARK  127  A    between atoms: _316  and  _317
REMARK  128  A    between atoms: _319  and  _321
REMARK  129  A    between atoms: _321  and  _322
REMARK  130  A    between atoms: _321  and  _324
REMARK  131  A    between atoms: _324  and  _325
REMARK  132  A    between atoms: _328  and  _330
REMARK  133  A    between atoms: _330  and  _331
REMARK  134  A    between atoms: _334  and  _336
REMARK  135  A    between atoms: _336  and  _337
REMARK  136  A    between atoms: _336  and  _339
REMARK  137  A    between atoms: _339  and  _340
REMARK  138  A    between atoms: _340  and  _341
REMARK  139  A    between atoms: _341  and  _342
REMARK  140  A    between atoms: _351  and  _353
REMARK  141  A    between atoms: _353  and  _354
REMARK  142  A    between atoms: _353  and  _356
REMARK  143  A    between atoms: _356  and  _357
REMARK  144  A    between atoms: _362  and  _364
REMARK  145  A    between atoms: _364  and  _365
REMARK  146  A    between atoms: _364  and  _367
REMARK  147  A    between atoms: _367  and  _368
REMARK  148  A    between atoms: _374  and  _376
REMARK  149  A    between atoms: _376  and  _377
REMARK  150  A    between atoms: _376  and  _379
REMARK  151  A    between atoms: _379  and  _380
REMARK  152  A    between atoms: _384  and  _385
REMARK  153  A    between atoms: _390  and  _392
REMARK  154  A    between atoms: _392  and  _393
REMARK  155  A    between atoms: _392  and  _395
REMARK  156  A    between atoms: _395  and  _396
REMARK  157  A    between atoms: _399  and  _401
REMARK  158  A    between atoms: _401  and  _402
REMARK  159  A    between atoms: _401  and  _404
REMARK  160  A    between atoms: _407  and  _409
REMARK  161  A    between atoms: _409  and  _410
REMARK  162  A    between atoms: _409  and  _412
REMARK  163  A    between atoms: _412  and  _413
REMARK  164  A    between atoms: _418  and  _420
REMARK  165  A    between atoms: _420  and  _421
REMARK  166  A    between atoms: _420  and  _423
REMARK  167  A    between atoms: _423  and  _424
REMARK  168  A    between atoms: _427  and  _429
REMARK  169  A    between atoms: _429  and  _430
REMARK  170  A    between atoms: _429  and  _432
REMARK  171  A    between atoms: _432  and  _433
REMARK  172  A    between atoms: _435  and  _437
REMARK  173  A    between atoms: _437  and  _438
REMARK  174  A    between atoms: _437  and  _440
REMARK  175  A    between atoms: _440  and  _441
REMARK  176  A    between atoms: _447  and  _449
REMARK  177  A    between atoms: _449  and  _450
REMARK  178  A    between atoms: _449  and  _452
REMARK  179  A    between atoms: _452  and  _453
REMARK  180  A    between atoms: _458  and  _460
REMARK  181  A    between atoms: _460  and  _461
REMARK  182  A    between atoms: _460  and  _463
REMARK  183  A    between atoms: _463  and  _464
REMARK  184  A    between atoms: _467  and  _469
REMARK  185  A    between atoms: _469  and  _470
REMARK  186  A    between atoms: _472  and  _474
REMARK  187  A    between atoms: _474  and  _475
REMARK  188  A    between atoms: _474  and  _477
REMARK  189  A    between atoms: _477  and  _478
REMARK  190  A    between atoms: _478  and  _479
REMARK  191  A    between atoms: _484  and  _486
REMARK  192  A    between atoms: _486  and  _487
REMARK  193  A    between atoms: _490  and  _492
REMARK  194  A    between atoms: _492  and  _493
REMARK  195  A    between atoms: _492  and  _495
REMARK  196  A    between atoms: _495  and  _496
REMARK  197  A    between atoms: _499  and  _501
REMARK  198  A    between atoms: _501  and  _502
REMARK  199  A    between atoms: _505  and  _507
REMARK  200  A    between atoms: _507  and  _508
REMARK  201  A    between atoms: _507  and  _510
REMARK  202  A    between atoms: _510  and  _511
REMARK  203  A    between atoms: _516  and  _518
REMARK  204  A    between atoms: _518  and  _519
REMARK  205  A    between atoms: _518  and  _521
REMARK  206  A    between atoms: _521  and  _522
REMARK  207  A    between atoms: _527  and  _528
REMARK  208  A    between atoms: _530  and  _532
REMARK  209  A    between atoms: _532  and  _533
REMARK  210  A    between atoms: _532  and  _535
REMARK  211  A    between atoms: _535  and  _536
REMARK  212  A    between atoms: _539  and  _541
REMARK  213  A    between atoms: _541  and  _542
REMARK  214  A    between atoms: _541  and  _544
REMARK  215  A    between atoms: _544  and  _545
REMARK  216  A    between atoms: _547  and  _549
REMARK  217  A    between atoms: _549  and  _550
REMARK  218  A    between atoms: _549  and  _552
REMARK  219  A    between atoms: _552  and  _553
REMARK  220  A    between atoms: _559  and  _561
REMARK  221  A    between atoms: _561  and  _562
REMARK  222  A    between atoms: _561  and  _564
REMARK  223  A    between atoms: _564  and  _565
REMARK  224  A    between atoms: _565  and  _566
REMARK  225  A    between atoms: _569  and  _571
REMARK  226  A    between atoms: _571  and  _572
REMARK  227  A    between atoms: _571  and  _574
REMARK  228  A    between atoms: _574  and  _575
REMARK  229  A    between atoms: _575  and  _576
REMARK  230  A    between atoms: _576  and  _577
REMARK  231  A    between atoms: _577  and  _578
REMARK  232  A    between atoms: _582  and  _584
REMARK  233  A    between atoms: _584  and  _585
REMARK  234  A    between atoms: _584  and  _587
REMARK  235  A    between atoms: _587  and  _588
REMARK  236  A    between atoms: _590  and  _592
REMARK  237  A    between atoms: _592  and  _593
REMARK  238  A    between atoms: _592  and  _595
REMARK  239  A    between atoms: _595  and  _596
REMARK  240  A    between atoms: _596  and  _597
REMARK  241  A    between atoms: _597  and  _598
REMARK                            x       y       z     vdW  Elec       q    Type
REMARK                         _______ _______ _______ _____ _____    ______ ____
ROOT
ATOM      1  O   HOH     1       3.483  30.155  11.090  0.00  0.00    +0.000 OA
ENDROOT
TORSDOF 0
REMARK  Name = ../refined-set-2016/3wgg/3wgg_pocket.pdb
REMARK  241 active torsions:
REMARK  status: ('A' for Active; 'I' for Inactive)
REMARK    1  A    between atoms: _1  and  _3
REMARK    2  A    between atoms: _3  and  _4
REMARK    3  A    between atoms: _3  and  _6
REMARK    4  A    between atoms: _6  and  _7
REMARK    5  A    between atoms: _10  and  _12
REMARK    6  A    between atoms: _12  and  _13
REMARK    7  A    between atoms: _12  and  _15
REMARK    8  A    between atoms: _15  and  _16
REMARK    9  A    between atoms: _19  and  _21
REMARK   10  A    between atoms: _21  and  _22
REMARK   11  A    between atoms: _24  and  _26
REMARK   12  A    between atoms: _26  and  _27
REMARK   13  A    between atoms: _30  and  _32
REMARK   14  A    between atoms: _32  and  _33
REMARK   15  A    between atoms: _35  and  _37
REMARK   16  A    between atoms: _37  and  _38
REMARK   17  A    between atoms: _37  and  _40
REMARK   18  A    between atoms: _40  and  _41
REMARK   19  A    between atoms: _46  and  _48
REMARK   20  A    between atoms: _48  and  _49
REMARK   21  A    between atoms: _48  and  _51
REMARK   22  A    between atoms: _51  and  _52
REMARK   23  A    between atoms: _55  and  _57
REMARK   24  A    between atoms: _57  and  _58
REMARK   25  A    between atoms: _60  and  _62
REMARK   26  A    between atoms: _62  and  _63
REMARK   27  A    between atoms: _62  and  _65
REMARK   28  A    between atoms: _65  and  _66
REMARK   29  A    between atoms: _66  and  _67
REMARK   30  A    between atoms: _72  and  _74
REMARK   31  A    between atoms: _74  and  _75
REMARK   32  A    between atoms: _78  and  _80
REMARK   33  A    between atoms: _80  and  _81
REMARK   34  A    between atoms: _80  and  _83
REMARK   35  A    between atoms: _83  and  _84
REMARK   36  A    between atoms: _87  and  _89
REMARK   37  A    between atoms: _89  and  _90
REMARK   38  A    between atoms: _89  and  _92
REMARK   39  A    between atoms: _92  and  _93
REMARK   40  A    between atoms: _96  and  _98
REMARK   41  A    between atoms: _98  and  _99
REMARK   42  A    between atoms: _98  and  _101
REMARK   43  A    between atoms: _101  and  _102
REMARK   44  A    between atoms: _108  and  _110
REMARK   45  A    between atoms: _110  and  _111
REMARK   46  A    between atoms: _110  and  _113
REMARK   47  A    between atoms: _113  and  _114
REMARK   48  A    between atoms: _117  and  _119
REMARK   49  A    between atoms: _119  and  _120
REMARK   50  A    between atoms: _119  and  _122
REMARK   51  A    between atoms: _122  and  _123
REMARK   52  A    between atoms: _126  and  _128
REMARK   53  A    between atoms: _128  and  _129
REMARK   54  A    between atoms: _128  and  _131
REMARK   55  A    between atoms: _131  and  _132
REMARK   56  A    between atoms: _138  and  _139
REMARK   57  A    between atoms: _144  and  _146
REMARK   58  A    between atoms: _146  and  _147
REMARK   59  A    between atoms: _146  and  _149
REMARK   60  A    between atoms: _149  and  _150
REMARK   61  A    between atoms: _150  and  _151
REMARK   62  A    between atoms: _151  and  _152
REMARK   63  A    between atoms: _161  and  _163
REMARK   64  A    between atoms: _163  and  _164
REMARK   65  A    between atoms: _163  and  _166
REMARK   66  A    between atoms: _166  and  _167
REMARK   67  A    between atoms: _170  and  _172
REMARK   68  A    between atoms: _172  and  _173
REMARK   69  A    between atoms: _172  and  _175
REMARK   70  A    between atoms: _175  and  _176
REMARK   71  A    between atoms: _182  and  _184
REMARK   72  A    between atoms: _184  and  _185
REMARK   73  A    between atoms: _184  and  _187
REMARK   74  A    between atoms: _190  and  _192
REMARK   75  A    between atoms: _192  and  _193
REMARK   76  A    between atoms: _192  and  _195
REMARK   77  A    between atoms: _195  and  _196
REMARK   78  A    between atoms: _196  and  _197
REMARK   79  A    between atoms: _199  and  _201
REMARK   80  A    between atoms: _201  and  _202
REMARK   81  A    between atoms: _201  and  _204
REMARK   82  A    between atoms: _204  and  _205
REMARK   83  A    between atoms: _208  and  _210
REMARK   84  A    between atoms: _210  and  _211
REMARK   85  A    between atoms: _210  and  _213
REMARK   86  A    between atoms: _216  and  _218
REMARK   87  A    between atoms: _218  and  _219
REMARK   88  A    between atoms: _218  and  _221
REMARK   89  A    between atoms: _221  and  _222
REMARK   90  A    between atoms: _222  and  _223
REMARK   91  A    between atoms: _226  and  _228
REMARK   92  A    between atoms: _228  and  _229
REMARK   93  A    between atoms: _228  and  _231
REMARK   94  A    between atoms: _234  and  _236
REMARK   95  A    between atoms: _236  and  _237
REMARK   96  A    between atoms: _236  and  _239
REMARK   97  A    between atoms: _239  and  _240
REMARK   98  A    between atoms: _243  and  _245
REMARK   99  A    between atoms: _245  and  _246
REMARK  100  A    between atoms: _245  and  _248
REMARK  101  A    between atoms: _250  and  _252
REMARK  102  A    between atoms: _252  and  _253
REMARK  103  A    between atoms: _252  and  _255
REMARK  104  A    between atoms: _255  and  _256
REMARK  105  A    between atoms: _260  and  _261
REMARK  106  A    between atoms: _266  and  _268
REMARK  107  A    between atoms: _268  and  _269
REMARK  108  A    between atoms: _268  and  _271
REMARK  109  A    between atoms: _271  and  _272
REMARK  110  A    between atoms: _272  and  _273
REMARK  111  A    between atoms: _273  and  _274
REMARK  112  A    between atoms: _274  and  _275
REMARK  113  A    between atoms: _279  and  _281
REMARK  114  A    between atoms: _281  and  _282
REMARK  115  A    between atoms: _281  and  _284
REMARK  116  A    between atoms: _284  and  _285
REMARK  117  A    between atoms: _288  and  _290
REMARK  118  A    between atoms: _290  and  _291
REMARK  119  A    between atoms: _290  and  _293
REMARK  120  A    between atoms: _293  and  _294
REMARK  121  A    between atoms: _299  and  _301
REMARK  122  A    between atoms: _301  and  _302
REMARK  123  A    between atoms: _305  and  _307
REMARK  124  A    between atoms: _307  and  _308
REMARK  125  A    between atoms: _307  and  _310
REMARK  126  A    between atoms: _310  and  _311
REMARK  127  A    between atoms: _316  and  _317
REMARK  128  A    between atoms: _319  and  _321
REMARK  129  A    between atoms: _321  and  _322
REMARK  130  A    between atoms: _321  and  _324
REMARK  131  A    between atoms: _324  and  _325
REMARK  132  A    between atoms: _328  and  _330
REMARK  133  A    between atoms: _330  and  _331
REMARK  134  A    between atoms: _334  and  _336
REMARK  135  A    between atoms: _336  and  _337
REMARK  136  A    between atoms: _336  and  _339
REMARK  137  A    between atoms: _339  and  _340
REMARK  138  A    between atoms: _340  and  _341
REMARK  139  A    between atoms: _341  and  _342
REMARK  140  A    between atoms: _351  and  _353
REMARK  141  A    between atoms: _353  and  _354
REMARK  142  A    between atoms: _353  and  _356
REMARK  143  A    between atoms: _356  and  _357
REMARK  144  A    between atoms: _362  and  _364
REMARK  145  A    between atoms: _364  and  _365
REMARK  146  A    between atoms: _364  and  _367
REMARK  147  A    between atoms: _367  and  _368
REMARK  148  A    between atoms: _374  and  _376
REMARK  149  A    between atoms: _376  and  _377
REMARK  150  A    between atoms: _376  and  _379
REMARK  151  A    between atoms: _379  and  _380
REMARK  152  A    between atoms: _384  and  _385
REMARK  153  A    between atoms: _390  and  _392
REMARK  154  A    between atoms: _392  and  _393
REMARK  155  A    between atoms: _392  and  _395
REMARK  156  A    between atoms: _395  and  _396
REMARK  157  A    between atoms: _399  and  _401
REMARK  158  A    between atoms: _401  and  _402
REMARK  159  A    between atoms: _401  and  _404
REMARK  160  A    between atoms: _407  and  _409
REMARK  161  A    between atoms: _409  and  _410
REMARK  162  A    between atoms: _409  and  _412
REMARK  163  A    between atoms: _412  and  _413
REMARK  164  A    between atoms: _418  and  _420
REMARK  165  A    between atoms: _420  and  _421
REMARK  166  A    between atoms: _420  and  _423
REMARK  167  A    between atoms: _423  and  _424
REMARK  168  A    between atoms: _427  and  _429
REMARK  169  A    between atoms: _429  and  _430
REMARK  170  A    between atoms: _429  and  _432
REMARK  171  A    between atoms: _432  and  _433
REMARK  172  A    between atoms: _435  and  _437
REMARK  173  A    between atoms: _437  and  _438
REMARK  174  A    between atoms: _437  and  _440
REMARK  175  A    between atoms: _440  and  _441
REMARK  176  A    between atoms: _447  and  _449
REMARK  177  A    between atoms: _449  and  _450
REMARK  178  A    between atoms: _449  and  _452
REMARK  179  A    between atoms: _452  and  _453
REMARK  180  A    between atoms: _458  and  _460
REMARK  181  A    between atoms: _460  and  _461
REMARK  182  A    between atoms: _460  and  _463
REMARK  183  A    between atoms: _463  and  _464
REMARK  184  A    between atoms: _467  and  _469
REMARK  185  A    between atoms: _469  and  _470
REMARK  186  A    between atoms: _472  and  _474
REMARK  187  A    between atoms: _474  and  _475
REMARK  188  A    between atoms: _474  and  _477
REMARK  189  A    between atoms: _477  and  _478
REMARK  190  A    between atoms: _478  and  _479
REMARK  191  A    between atoms: _484  and  _486
REMARK  192  A    between atoms: _486  and  _487
REMARK  193  A    between atoms: _490  and  _492
REMARK  194  A    between atoms: _492  and  _493
REMARK  195  A    between atoms: _492  and  _495
REMARK  196  A    between atoms: _495  and  _496
REMARK  197  A    between atoms: _499  and  _501
REMARK  198  A    between atoms: _501  and  _502
REMARK  199  A    between atoms: _505  and  _507
REMARK  200  A    between atoms: _507  and  _508
REMARK  201  A    between atoms: _507  and  _510
REMARK  202  A    between atoms: _510  and  _511
REMARK  203  A    between atoms: _516  and  _518
REMARK  204  A    between atoms: _518  and  _519
REMARK  205  A    between atoms: _518  and  _521
REMARK  206  A    between atoms: _521  and  _522
REMARK  207  A    between atoms: _527  and  _528
REMARK  208  A    between atoms: _530  and  _532
REMARK  209  A    between atoms: _532  and  _533
REMARK  210  A    between atoms: _532  and  _535
REMARK  211  A    between atoms: _535  and  _536
REMARK  212  A    between atoms: _539  and  _541
REMARK  213  A    between atoms: _541  and  _542
REMARK  214  A    between atoms: _541  and  _544
REMARK  215  A    between atoms: _544  and  _545
REMARK  216  A    between atoms: _547  and  _549
REMARK  217  A    between atoms: _549  and  _550
REMARK  218  A    between atoms: _549  and  _552
REMARK  219  A    between atoms: _552  and  _553
REMARK  220  A    between atoms: _559  and  _561
REMARK  221  A    between atoms: _561  and  _562
REMARK  222  A    between atoms: _561  and  _564
REMARK  223  A    between atoms: _564  and  _565
REMARK  224  A    between atoms: _565  and  _566
REMARK  225  A    between atoms: _569  and  _571
REMARK  226  A    between atoms: _571  and  _572
REMARK  227  A    between atoms: _571  and  _574
REMARK  228  A    between atoms: _574  and  _575
REMARK  229  A    between atoms: _575  and  _576
REMARK  230  A    between atoms: _576  and  _577
REMARK  231  A    between atoms: _577  and  _578
REMARK  232  A    between atoms: _582  and  _584
REMARK  233  A    between atoms: _584  and  _585
REMARK  234  A    between atoms: _584  and  _587
REMARK  235  A    between atoms: _587  and  _588
REMARK  236  A    between atoms: _590  and  _592
REMARK  237  A    between atoms: _592  and  _593
REMARK  238  A    between atoms: _592  and  _595
REMARK  239  A    between atoms: _595  and  _596
REMARK  240  A    between atoms: _596  and  _597
REMARK  241  A    between atoms: _597  and  _598
REMARK                            x       y       z     vdW  Elec       q    Type
REMARK                         _______ _______ _______ _____ _____    ______ ____
ROOT
ATOM      1  O   HOH     1       1.113  31.949  13.420  0.00  0.00    +0.000 OA
ENDROOT
TORSDOF 0
REMARK  Name = ../refined-set-2016/3wgg/3wgg_pocket.pdb
REMARK  241 active torsions:
REMARK  status: ('A' for Active; 'I' for Inactive)
REMARK    1  A    between atoms: _1  and  _3
REMARK    2  A    between atoms: _3  and  _4
REMARK    3  A    between atoms: _3  and  _6
REMARK    4  A    between atoms: _6  and  _7
REMARK    5  A    between atoms: _10  and  _12
REMARK    6  A    between atoms: _12  and  _13
REMARK    7  A    between atoms: _12  and  _15
REMARK    8  A    between atoms: _15  and  _16
REMARK    9  A    between atoms: _19  and  _21
REMARK   10  A    between atoms: _21  and  _22
REMARK   11  A    between atoms: _24  and  _26
REMARK   12  A    between atoms: _26  and  _27
REMARK   13  A    between atoms: _30  and  _32
REMARK   14  A    between atoms: _32  and  _33
REMARK   15  A    between atoms: _35  and  _37
REMARK   16  A    between atoms: _37  and  _38
REMARK   17  A    between atoms: _37  and  _40
REMARK   18  A    between atoms: _40  and  _41
REMARK   19  A    between atoms: _46  and  _48
REMARK   20  A    between atoms: _48  and  _49
REMARK   21  A    between atoms: _48  and  _51
REMARK   22  A    between atoms: _51  and  _52
REMARK   23  A    between atoms: _55  and  _57
REMARK   24  A    between atoms: _57  and  _58
REMARK   25  A    between atoms: _60  and  _62
REMARK   26  A    between atoms: _62  and  _63
REMARK   27  A    between atoms: _62  and  _65
REMARK   28  A    between atoms: _65  and  _66
REMARK   29  A    between atoms: _66  and  _67
REMARK   30  A    between atoms: _72  and  _74
REMARK   31  A    between atoms: _74  and  _75
REMARK   32  A    between atoms: _78  and  _80
REMARK   33  A    between atoms: _80  and  _81
REMARK   34  A    between atoms: _80  and  _83
REMARK   35  A    between atoms: _83  and  _84
REMARK   36  A    between atoms: _87  and  _89
REMARK   37  A    between atoms: _89  and  _90
REMARK   38  A    between atoms: _89  and  _92
REMARK   39  A    between atoms: _92  and  _93
REMARK   40  A    between atoms: _96  and  _98
REMARK   41  A    between atoms: _98  and  _99
REMARK   42  A    between atoms: _98  and  _101
REMARK   43  A    between atoms: _101  and  _102
REMARK   44  A    between atoms: _108  and  _110
REMARK   45  A    between atoms: _110  and  _111
REMARK   46  A    between atoms: _110  and  _113
REMARK   47  A    between atoms: _113  and  _114
REMARK   48  A    between atoms: _117  and  _119
REMARK   49  A    between atoms: _119  and  _120
REMARK   50  A    between atoms: _119  and  _122
REMARK   51  A    between atoms: _122  and  _123
REMARK   52  A    between atoms: _126  and  _128
REMARK   53  A    between atoms: _128  and  _129
REMARK   54  A    between atoms: _128  and  _131
REMARK   55  A    between atoms: _131  and  _132
REMARK   56  A    between atoms: _138  and  _139
REMARK   57  A    between atoms: _144  and  _146
REMARK   58  A    between atoms: _146  and  _147
REMARK   59  A    between atoms: _146  and  _149
REMARK   60  A    between atoms: _149  and  _150
REMARK   61  A    between atoms: _150  and  _151
REMARK   62  A    between atoms: _151  and  _152
REMARK   63  A    between atoms: _161  and  _163
REMARK   64  A    between atoms: _163  and  _164
REMARK   65  A    between atoms: _163  and  _166
REMARK   66  A    between atoms: _166  and  _167
REMARK   67  A    between atoms: _170  and  _172
REMARK   68  A    between atoms: _172  and  _173
REMARK   69  A    between atoms: _172  and  _175
REMARK   70  A    between atoms: _175  and  _176
REMARK   71  A    between atoms: _182  and  _184
REMARK   72  A    between atoms: _184  and  _185
REMARK   73  A    between atoms: _184  and  _187
REMARK   74  A    between atoms: _190  and  _192
REMARK   75  A    between atoms: _192  and  _193
REMARK   76  A    between atoms: _192  and  _195
REMARK   77  A    between atoms: _195  and  _196
REMARK   78  A    between atoms: _196  and  _197
REMARK   79  A    between atoms: _199  and  _201
REMARK   80  A    between atoms: _201  and  _202
REMARK   81  A    between atoms: _201  and  _204
REMARK   82  A    between atoms: _204  and  _205
REMARK   83  A    between atoms: _208  and  _210
REMARK   84  A    between atoms: _210  and  _211
REMARK   85  A    between atoms: _210  and  _213
REMARK   86  A    between atoms: _216  and  _218
REMARK   87  A    between atoms: _218  and  _219
REMARK   88  A    between atoms: _218  and  _221
REMARK   89  A    between atoms: _221  and  _222
REMARK   90  A    between atoms: _222  and  _223
REMARK   91  A    between atoms: _226  and  _228
REMARK   92  A    between atoms: _228  and  _229
REMARK   93  A    between atoms: _228  and  _231
REMARK   94  A    between atoms: _234  and  _236
REMARK   95  A    between atoms: _236  and  _237
REMARK   96  A    between atoms: _236  and  _239
REMARK   97  A    between atoms: _239  and  _240
REMARK   98  A    between atoms: _243  and  _245
REMARK   99  A    between atoms: _245  and  _246
REMARK  100  A    between atoms: _245  and  _248
REMARK  101  A    between atoms: _250  and  _252
REMARK  102  A    between atoms: _252  and  _253
REMARK  103  A    between atoms: _252  and  _255
REMARK  104  A    between atoms: _255  and  _256
REMARK  105  A    between atoms: _260  and  _261
REMARK  106  A    between atoms: _266  and  _268
REMARK  107  A    between atoms: _268  and  _269
REMARK  108  A    between atoms: _268  and  _271
REMARK  109  A    between atoms: _271  and  _272
REMARK  110  A    between atoms: _272  and  _273
REMARK  111  A    between atoms: _273  and  _274
REMARK  112  A    between atoms: _274  and  _275
REMARK  113  A    between atoms: _279  and  _281
REMARK  114  A    between atoms: _281  and  _282
REMARK  115  A    between atoms: _281  and  _284
REMARK  116  A    between atoms: _284  and  _285
REMARK  117  A    between atoms: _288  and  _290
REMARK  118  A    between atoms: _290  and  _291
REMARK  119  A    between atoms: _290  and  _293
REMARK  120  A    between atoms: _293  and  _294
REMARK  121  A    between atoms: _299  and  _301
REMARK  122  A    between atoms: _301  and  _302
REMARK  123  A    between atoms: _305  and  _307
REMARK  124  A    between atoms: _307  and  _308
REMARK  125  A    between atoms: _307  and  _310
REMARK  126  A    between atoms: _310  and  _311
REMARK  127  A    between atoms: _316  and  _317
REMARK  128  A    between atoms: _319  and  _321
REMARK  129  A    between atoms: _321  and  _322
REMARK  130  A    between atoms: _321  and  _324
REMARK  131  A    between atoms: _324  and  _325
REMARK  132  A    between atoms: _328  and  _330
REMARK  133  A    between atoms: _330  and  _331
REMARK  134  A    between atoms: _334  and  _336
REMARK  135  A    between atoms: _336  and  _337
REMARK  136  A    between atoms: _336  and  _339
REMARK  137  A    between atoms: _339  and  _340
REMARK  138  A    between atoms: _340  and  _341
REMARK  139  A    between atoms: _341  and  _342
REMARK  140  A    between atoms: _351  and  _353
REMARK  141  A    between atoms: _353  and  _354
REMARK  142  A    between atoms: _353  and  _356
REMARK  143  A    between atoms: _356  and  _357
REMARK  144  A    between atoms: _362  and  _364
REMARK  145  A    between atoms: _364  and  _365
REMARK  146  A    between atoms: _364  and  _367
REMARK  147  A    between atoms: _367  and  _368
REMARK  148  A    between atoms: _374  and  _376
REMARK  149  A    between atoms: _376  and  _377
REMARK  150  A    between atoms: _376  and  _379
REMARK  151  A    between atoms: _379  and  _380
REMARK  152  A    between atoms: _384  and  _385
REMARK  153  A    between atoms: _390  and  _392
REMARK  154  A    between atoms: _392  and  _393
REMARK  155  A    between atoms: _392  and  _395
REMARK  156  A    between atoms: _395  and  _396
REMARK  157  A    between atoms: _399  and  _401
REMARK  158  A    between atoms: _401  and  _402
REMARK  159  A    between atoms: _401  and  _404
REMARK  160  A    between atoms: _407  and  _409
REMARK  161  A    between atoms: _409  and  _410
REMARK  162  A    between atoms: _409  and  _412
REMARK  163  A    between atoms: _412  and  _413
REMARK  164  A    between atoms: _418  and  _420
REMARK  165  A    between atoms: _420  and  _421
REMARK  166  A    between atoms: _420  and  _423
REMARK  167  A    between atoms: _423  and  _424
REMARK  168  A    between atoms: _427  and  _429
REMARK  169  A    between atoms: _429  and  _430
REMARK  170  A    between atoms: _429  and  _432
REMARK  171  A    between atoms: _432  and  _433
REMARK  172  A    between atoms: _435  and  _437
REMARK  173  A    between atoms: _437  and  _438
REMARK  174  A    between atoms: _437  and  _440
REMARK  175  A    between atoms: _440  and  _441
REMARK  176  A    between atoms: _447  and  _449
REMARK  177  A    between atoms: _449  and  _450
REMARK  178  A    between atoms: _449  and  _452
REMARK  179  A    between atoms: _452  and  _453
REMARK  180  A    between atoms: _458  and  _460
REMARK  181  A    between atoms: _460  and  _461
REMARK  182  A    between atoms: _460  and  _463
REMARK  183  A    between atoms: _463  and  _464
REMARK  184  A    between atoms: _467  and  _469
REMARK  185  A    between atoms: _469  and  _470
REMARK  186  A    between atoms: _472  and  _474
REMARK  187  A    between atoms: _474  and  _475
REMARK  188  A    between atoms: _474  and  _477
REMARK  189  A    between atoms: _477  and  _478
REMARK  190  A    between atoms: _478  and  _479
REMARK  191  A    between atoms: _484  and  _486
REMARK  192  A    between atoms: _486  and  _487
REMARK  193  A    between atoms: _490  and  _492
REMARK  194  A    between atoms: _492  and  _493
REMARK  195  A    between atoms: _492  and  _495
REMARK  196  A    between atoms: _495  and  _496
REMARK  197  A    between atoms: _499  and  _501
REMARK  198  A    between atoms: _501  and  _502
REMARK  199  A    between atoms: _505  and  _507
REMARK  200  A    between atoms: _507  and  _508
REMARK  201  A    between atoms: _507  and  _510
REMARK  202  A    between atoms: _510  and  _511
REMARK  203  A    between atoms: _516  and  _518
REMARK  204  A    between atoms: _518  and  _519
REMARK  205  A    between atoms: _518  and  _521
REMARK  206  A    between atoms: _521  and  _522
REMARK  207  A    between atoms: _527  and  _528
REMARK  208  A    between atoms: _530  and  _532
REMARK  209  A    between atoms: _532  and  _533
REMARK  210  A    between atoms: _532  and  _535
REMARK  211  A    between atoms: _535  and  _536
REMARK  212  A    between atoms: _539  and  _541
REMARK  213  A    between atoms: _541  and  _542
REMARK  214  A    between atoms: _541  and  _544
REMARK  215  A    between atoms: _544  and  _545
REMARK  216  A    between atoms: _547  and  _549
REMARK  217  A    between atoms: _549  and  _550
REMARK  218  A    between atoms: _549  and  _552
REMARK  219  A    between atoms: _552  and  _553
REMARK  220  A    between atoms: _559  and  _561
REMARK  221  A    between atoms: _561  and  _562
REMARK  222  A    between atoms: _561  and  _564
REMARK  223  A    between atoms: _564  and  _565
REMARK  224  A    between atoms: _565  and  _566
REMARK  225  A    between atoms: _569  and  _571
REMARK  226  A    between atoms: _571  and  _572
REMARK  227  A    between atoms: _571  and  _574
REMARK  228  A    between atoms: _574  and  _575
REMARK  229  A    between atoms: _575  and  _576
REMARK  230  A    between atoms: _576  and  _577
REMARK  231  A    between atoms: _577  and  _578
REMARK  232  A    between atoms: _582  and  _584
REMARK  233  A    between atoms: _584  and  _585
REMARK  234  A    between atoms: _584  and  _587
REMARK  235  A    between atoms: _587  and  _588
REMARK  236  A    between atoms: _590  and  _592
REMARK  237  A    between atoms: _592  and  _593
REMARK  238  A    between atoms: _592  and  _595
REMARK  239  A    between atoms: _595  and  _596
REMARK  240  A    between atoms: _596  and  _597
REMARK  241  A    between atoms: _597  and  _598
REMARK                            x       y       z     vdW  Elec       q    Type
REMARK                         _______ _______ _______ _____ _____    ______ ____
ROOT
ATOM      1  O   HOH     1       0.099  28.012  10.790  0.00  0.00    +0.000 OA
ENDROOT
TORSDOF 0
REMARK  Name = ../refined-set-2016/3wgg/3wgg_pocket.pdb
REMARK  241 active torsions:
REMARK  status: ('A' for Active; 'I' for Inactive)
REMARK    1  A    between atoms: _1  and  _3
REMARK    2  A    between atoms: _3  and  _4
REMARK    3  A    between atoms: _3  and  _6
REMARK    4  A    between atoms: _6  and  _7
REMARK    5  A    between atoms: _10  and  _12
REMARK    6  A    between atoms: _12  and  _13
REMARK    7  A    between atoms: _12  and  _15
REMARK    8  A    between atoms: _15  and  _16
REMARK    9  A    between atoms: _19  and  _21
REMARK   10  A    between atoms: _21  and  _22
REMARK   11  A    between atoms: _24  and  _26
REMARK   12  A    between atoms: _26  and  _27
REMARK   13  A    between atoms: _30  and  _32
REMARK   14  A    between atoms: _32  and  _33
REMARK   15  A    between atoms: _35  and  _37
REMARK   16  A    between atoms: _37  and  _38
REMARK   17  A    between atoms: _37  and  _40
REMARK   18  A    between atoms: _40  and  _41
REMARK   19  A    between atoms: _46  and  _48
REMARK   20  A    between atoms: _48  and  _49
REMARK   21  A    between atoms: _48  and  _51
REMARK   22  A    between atoms: _51  and  _52
REMARK   23  A    between atoms: _55  and  _57
REMARK   24  A    between atoms: _57  and  _58
REMARK   25  A    between atoms: _60  and  _62
REMARK   26  A    between atoms: _62  and  _63
REMARK   27  A    between atoms: _62  and  _65
REMARK   28  A    between atoms: _65  and  _66
REMARK   29  A    between atoms: _66  and  _67
REMARK   30  A    between atoms: _72  and  _74
REMARK   31  A    between atoms: _74  and  _75
REMARK   32  A    between atoms: _78  and  _80
REMARK   33  A    between atoms: _80  and  _81
REMARK   34  A    between atoms: _80  and  _83
REMARK   35  A    between atoms: _83  and  _84
REMARK   36  A    between atoms: _87  and  _89
REMARK   37  A    between atoms: _89  and  _90
REMARK   38  A    between atoms: _89  and  _92
REMARK   39  A    between atoms: _92  and  _93
REMARK   40  A    between atoms: _96  and  _98
REMARK   41  A    between atoms: _98  and  _99
REMARK   42  A    between atoms: _98  and  _101
REMARK   43  A    between atoms: _101  and  _102
REMARK   44  A    between atoms: _108  and  _110
REMARK   45  A    between atoms: _110  and  _111
REMARK   46  A    between atoms: _110  and  _113
REMARK   47  A    between atoms: _113  and  _114
REMARK   48  A    between atoms: _117  and  _119
REMARK   49  A    between atoms: _119  and  _120
REMARK   50  A    between atoms: _119  and  _122
REMARK   51  A    between atoms: _122  and  _123
REMARK   52  A    between atoms: _126  and  _128
REMARK   53  A    between atoms: _128  and  _129
REMARK   54  A    between atoms: _128  and  _131
REMARK   55  A    between atoms: _131  and  _132
REMARK   56  A    between atoms: _138  and  _139
REMARK   57  A    between atoms: _144  and  _146
REMARK   58  A    between atoms: _146  and  _147
REMARK   59  A    between atoms: _146  and  _149
REMARK   60  A    between atoms: _149  and  _150
REMARK   61  A    between atoms: _150  and  _151
REMARK   62  A    between atoms: _151  and  _152
REMARK   63  A    between atoms: _161  and  _163
REMARK   64  A    between atoms: _163  and  _164
REMARK   65  A    between atoms: _163  and  _166
REMARK   66  A    between atoms: _166  and  _167
REMARK   67  A    between atoms: _170  and  _172
REMARK   68  A    between atoms: _172  and  _173
REMARK   69  A    between atoms: _172  and  _175
REMARK   70  A    between atoms: _175  and  _176
REMARK   71  A    between atoms: _182  and  _184
REMARK   72  A    between atoms: _184  and  _185
REMARK   73  A    between atoms: _184  and  _187
REMARK   74  A    between atoms: _190  and  _192
REMARK   75  A    between atoms: _192  and  _193
REMARK   76  A    between atoms: _192  and  _195
REMARK   77  A    between atoms: _195  and  _196
REMARK   78  A    between atoms: _196  and  _197
REMARK   79  A    between atoms: _199  and  _201
REMARK   80  A    between atoms: _201  and  _202
REMARK   81  A    between atoms: _201  and  _204
REMARK   82  A    between atoms: _204  and  _205
REMARK   83  A    between atoms: _208  and  _210
REMARK   84  A    between atoms: _210  and  _211
REMARK   85  A    between atoms: _210  and  _213
REMARK   86  A    between atoms: _216  and  _218
REMARK   87  A    between atoms: _218  and  _219
REMARK   88  A    between atoms: _218  and  _221
REMARK   89  A    between atoms: _221  and  _222
REMARK   90  A    between atoms: _222  and  _223
REMARK   91  A    between atoms: _226  and  _228
REMARK   92  A    between atoms: _228  and  _229
REMARK   93  A    between atoms: _228  and  _231
REMARK   94  A    between atoms: _234  and  _236
REMARK   95  A    between atoms: _236  and  _237
REMARK   96  A    between atoms: _236  and  _239
REMARK   97  A    between atoms: _239  and  _240
REMARK   98  A    between atoms: _243  and  _245
REMARK   99  A    between atoms: _245  and  _246
REMARK  100  A    between atoms: _245  and  _248
REMARK  101  A    between atoms: _250  and  _252
REMARK  102  A    between atoms: _252  and  _253
REMARK  103  A    between atoms: _252  and  _255
REMARK  104  A    between atoms: _255  and  _256
REMARK  105  A    between atoms: _260  and  _261
REMARK  106  A    between atoms: _266  and  _268
REMARK  107  A    between atoms: _268  and  _269
REMARK  108  A    between atoms: _268  and  _271
REMARK  109  A    between atoms: _271  and  _272
REMARK  110  A    between atoms: _272  and  _273
REMARK  111  A    between atoms: _273  and  _274
REMARK  112  A    between atoms: _274  and  _275
REMARK  113  A    between atoms: _279  and  _281
REMARK  114  A    between atoms: _281  and  _282
REMARK  115  A    between atoms: _281  and  _284
REMARK  116  A    between atoms: _284  and  _285
REMARK  117  A    between atoms: _288  and  _290
REMARK  118  A    between atoms: _290  and  _291
REMARK  119  A    between atoms: _290  and  _293
REMARK  120  A    between atoms: _293  and  _294
REMARK  121  A    between atoms: _299  and  _301
REMARK  122  A    between atoms: _301  and  _302
REMARK  123  A    between atoms: _305  and  _307
REMARK  124  A    between atoms: _307  and  _308
REMARK  125  A    between atoms: _307  and  _310
REMARK  126  A    between atoms: _310  and  _311
REMARK  127  A    between atoms: _316  and  _317
REMARK  128  A    between atoms: _319  and  _321
REMARK  129  A    between atoms: _321  and  _322
REMARK  130  A    between atoms: _321  and  _324
REMARK  131  A    between atoms: _324  and  _325
REMARK  132  A    between atoms: _328  and  _330
REMARK  133  A    between atoms: _330  and  _331
REMARK  134  A    between atoms: _334  and  _336
REMARK  135  A    between atoms: _336  and  _337
REMARK  136  A    between atoms: _336  and  _339
REMARK  137  A    between atoms: _339  and  _340
REMARK  138  A    between atoms: _340  and  _341
REMARK  139  A    between atoms: _341  and  _342
REMARK  140  A    between atoms: _351  and  _353
REMARK  141  A    between atoms: _353  and  _354
REMARK  142  A    between atoms: _353  and  _356
REMARK  143  A    between atoms: _356  and  _357
REMARK  144  A    between atoms: _362  and  _364
REMARK  145  A    between atoms: _364  and  _365
REMARK  146  A    between atoms: _364  and  _367
REMARK  147  A    between atoms: _367  and  _368
REMARK  148  A    between atoms: _374  and  _376
REMARK  149  A    between atoms: _376  and  _377
REMARK  150  A    between atoms: _376  and  _379
REMARK  151  A    between atoms: _379  and  _380
REMARK  152  A    between atoms: _384  and  _385
REMARK  153  A    between atoms: _390  and  _392
REMARK  154  A    between atoms: _392  and  _393
REMARK  155  A    between atoms: _392  and  _395
REMARK  156  A    between atoms: _395  and  _396
REMARK  157  A    between atoms: _399  and  _401
REMARK  158  A    between atoms: _401  and  _402
REMARK  159  A    between atoms: _401  and  _404
REMARK  160  A    between atoms: _407  and  _409
REMARK  161  A    between atoms: _409  and  _410
REMARK  162  A    between atoms: _409  and  _412
REMARK  163  A    between atoms: _412  and  _413
REMARK  164  A    between atoms: _418  and  _420
REMARK  165  A    between atoms: _420  and  _421
REMARK  166  A    between atoms: _420  and  _423
REMARK  167  A    between atoms: _423  and  _424
REMARK  168  A    between atoms: _427  and  _429
REMARK  169  A    between atoms: _429  and  _430
REMARK  170  A    between atoms: _429  and  _432
REMARK  171  A    between atoms: _432  and  _433
REMARK  172  A    between atoms: _435  and  _437
REMARK  173  A    between atoms: _437  and  _438
REMARK  174  A    between atoms: _437  and  _440
REMARK  175  A    between atoms: _440  and  _441
REMARK  176  A    between atoms: _447  and  _449
REMARK  177  A    between atoms: _449  and  _450
REMARK  178  A    between atoms: _449  and  _452
REMARK  179  A    between atoms: _452  and  _453
REMARK  180  A    between atoms: _458  and  _460
REMARK  181  A    between atoms: _460  and  _461
REMARK  182  A    between atoms: _460  and  _463
REMARK  183  A    between atoms: _463  and  _464
REMARK  184  A    between atoms: _467  and  _469
REMARK  185  A    between atoms: _469  and  _470
REMARK  186  A    between atoms: _472  and  _474
REMARK  187  A    between atoms: _474  and  _475
REMARK  188  A    between atoms: _474  and  _477
REMARK  189  A    between atoms: _477  and  _478
REMARK  190  A    between atoms: _478  and  _479
REMARK  191  A    between atoms: _484  and  _486
REMARK  192  A    between atoms: _486  and  _487
REMARK  193  A    between atoms: _490  and  _492
REMARK  194  A    between atoms: _492  and  _493
REMARK  195  A    between atoms: _492  and  _495
REMARK  196  A    between atoms: _495  and  _496
REMARK  197  A    between atoms: _499  and  _501
REMARK  198  A    between atoms: _501  and  _502
REMARK  199  A    between atoms: _505  and  _507
REMARK  200  A    between atoms: _507  and  _508
REMARK  201  A    between atoms: _507  and  _510
REMARK  202  A    between atoms: _510  and  _511
REMARK  203  A    between atoms: _516  and  _518
REMARK  204  A    between atoms: _518  and  _519
REMARK  205  A    between atoms: _518  and  _521
REMARK  206  A    between atoms: _521  and  _522
REMARK  207  A    between atoms: _527  and  _528
REMARK  208  A    between atoms: _530  and  _532
REMARK  209  A    between atoms: _532  and  _533
REMARK  210  A    between atoms: _532  and  _535
REMARK  211  A    between atoms: _535  and  _536
REMARK  212  A    between atoms: _539  and  _541
REMARK  213  A    between atoms: _541  and  _542
REMARK  214  A    between atoms: _541  and  _544
REMARK  215  A    between atoms: _544  and  _545
REMARK  216  A    between atoms: _547  and  _549
REMARK  217  A    between atoms: _549  and  _550
REMARK  218  A    between atoms: _549  and  _552
REMARK  219  A    between atoms: _552  and  _553
REMARK  220  A    between atoms: _559  and  _561
REMARK  221  A    between atoms: _561  and  _562
REMARK  222  A    between atoms: _561  and  _564
REMARK  223  A    between atoms: _564  and  _565
REMARK  224  A    between atoms: _565  and  _566
REMARK  225  A    between atoms: _569  and  _571
REMARK  226  A    between atoms: _571  and  _572
REMARK  227  A    between atoms: _571  and  _574
REMARK  228  A    between atoms: _574  and  _575
REMARK  229  A    between atoms: _575  and  _576
REMARK  230  A    between atoms: _576  and  _577
REMARK  231  A    between atoms: _577  and  _578
REMARK  232  A    between atoms: _582  and  _584
REMARK  233  A    between atoms: _584  and  _585
REMARK  234  A    between atoms: _584  and  _587
REMARK  235  A    between atoms: _587  and  _588
REMARK  236  A    between atoms: _590  and  _592
REMARK  237  A    between atoms: _592  and  _593
REMARK  238  A    between atoms: _592  and  _595
REMARK  239  A    between atoms: _595  and  _596
REMARK  240  A    between atoms: _596  and  _597
REMARK  241  A    between atoms: _597  and  _598
REMARK                            x       y       z     vdW  Elec       q    Type
REMARK                         _______ _______ _______ _____ _____    ______ ____
ROOT
ATOM      1  O   HOH     1      13.268  15.311  18.957  0.00  0.00    +0.000 OA
ENDROOT
TORSDOF 0
REMARK  Name = ../refined-set-2016/3wgg/3wgg_pocket.pdb
REMARK  241 active torsions:
REMARK  status: ('A' for Active; 'I' for Inactive)
REMARK    1  A    between atoms: _1  and  _3
REMARK    2  A    between atoms: _3  and  _4
REMARK    3  A    between atoms: _3  and  _6
REMARK    4  A    between atoms: _6  and  _7
REMARK    5  A    between atoms: _10  and  _12
REMARK    6  A    between atoms: _12  and  _13
REMARK    7  A    between atoms: _12  and  _15
REMARK    8  A    between atoms: _15  and  _16
REMARK    9  A    between atoms: _19  and  _21
REMARK   10  A    between atoms: _21  and  _22
REMARK   11  A    between atoms: _24  and  _26
REMARK   12  A    between atoms: _26  and  _27
REMARK   13  A    between atoms: _30  and  _32
REMARK   14  A    between atoms: _32  and  _33
REMARK   15  A    between atoms: _35  and  _37
REMARK   16  A    between atoms: _37  and  _38
REMARK   17  A    between atoms: _37  and  _40
REMARK   18  A    between atoms: _40  and  _41
REMARK   19  A    between atoms: _46  and  _48
REMARK   20  A    between atoms: _48  and  _49
REMARK   21  A    between atoms: _48  and  _51
REMARK   22  A    between atoms: _51  and  _52
REMARK   23  A    between atoms: _55  and  _57
REMARK   24  A    between atoms: _57  and  _58
REMARK   25  A    between atoms: _60  and  _62
REMARK   26  A    between atoms: _62  and  _63
REMARK   27  A    between atoms: _62  and  _65
REMARK   28  A    between atoms: _65  and  _66
REMARK   29  A    between atoms: _66  and  _67
REMARK   30  A    between atoms: _72  and  _74
REMARK   31  A    between atoms: _74  and  _75
REMARK   32  A    between atoms: _78  and  _80
REMARK   33  A    between atoms: _80  and  _81
REMARK   34  A    between atoms: _80  and  _83
REMARK   35  A    between atoms: _83  and  _84
REMARK   36  A    between atoms: _87  and  _89
REMARK   37  A    between atoms: _89  and  _90
REMARK   38  A    between atoms: _89  and  _92
REMARK   39  A    between atoms: _92  and  _93
REMARK   40  A    between atoms: _96  and  _98
REMARK   41  A    between atoms: _98  and  _99
REMARK   42  A    between atoms: _98  and  _101
REMARK   43  A    between atoms: _101  and  _102
REMARK   44  A    between atoms: _108  and  _110
REMARK   45  A    between atoms: _110  and  _111
REMARK   46  A    between atoms: _110  and  _113
REMARK   47  A    between atoms: _113  and  _114
REMARK   48  A    between atoms: _117  and  _119
REMARK   49  A    between atoms: _119  and  _120
REMARK   50  A    between atoms: _119  and  _122
REMARK   51  A    between atoms: _122  and  _123
REMARK   52  A    between atoms: _126  and  _128
REMARK   53  A    between atoms: _128  and  _129
REMARK   54  A    between atoms: _128  and  _131
REMARK   55  A    between atoms: _131  and  _132
REMARK   56  A    between atoms: _138  and  _139
REMARK   57  A    between atoms: _144  and  _146
REMARK   58  A    between atoms: _146  and  _147
REMARK   59  A    between atoms: _146  and  _149
REMARK   60  A    between atoms: _149  and  _150
REMARK   61  A    between atoms: _150  and  _151
REMARK   62  A    between atoms: _151  and  _152
REMARK   63  A    between atoms: _161  and  _163
REMARK   64  A    between atoms: _163  and  _164
REMARK   65  A    between atoms: _163  and  _166
REMARK   66  A    between atoms: _166  and  _167
REMARK   67  A    between atoms: _170  and  _172
REMARK   68  A    between atoms: _172  and  _173
REMARK   69  A    between atoms: _172  and  _175
REMARK   70  A    between atoms: _175  and  _176
REMARK   71  A    between atoms: _182  and  _184
REMARK   72  A    between atoms: _184  and  _185
REMARK   73  A    between atoms: _184  and  _187
REMARK   74  A    between atoms: _190  and  _192
REMARK   75  A    between atoms: _192  and  _193
REMARK   76  A    between atoms: _192  and  _195
REMARK   77  A    between atoms: _195  and  _196
REMARK   78  A    between atoms: _196  and  _197
REMARK   79  A    between atoms: _199  and  _201
REMARK   80  A    between atoms: _201  and  _202
REMARK   81  A    between atoms: _201  and  _204
REMARK   82  A    between atoms: _204  and  _205
REMARK   83  A    between atoms: _208  and  _210
REMARK   84  A    between atoms: _210  and  _211
REMARK   85  A    between atoms: _210  and  _213
REMARK   86  A    between atoms: _216  and  _218
REMARK   87  A    between atoms: _218  and  _219
REMARK   88  A    between atoms: _218  and  _221
REMARK   89  A    between atoms: _221  and  _222
REMARK   90  A    between atoms: _222  and  _223
REMARK   91  A    between atoms: _226  and  _228
REMARK   92  A    between atoms: _228  and  _229
REMARK   93  A    between atoms: _228  and  _231
REMARK   94  A    between atoms: _234  and  _236
REMARK   95  A    between atoms: _236  and  _237
REMARK   96  A    between atoms: _236  and  _239
REMARK   97  A    between atoms: _239  and  _240
REMARK   98  A    between atoms: _243  and  _245
REMARK   99  A    between atoms: _245  and  _246
REMARK  100  A    between atoms: _245  and  _248
REMARK  101  A    between atoms: _250  and  _252
REMARK  102  A    between atoms: _252  and  _253
REMARK  103  A    between atoms: _252  and  _255
REMARK  104  A    between atoms: _255  and  _256
REMARK  105  A    between atoms: _260  and  _261
REMARK  106  A    between atoms: _266  and  _268
REMARK  107  A    between atoms: _268  and  _269
REMARK  108  A    between atoms: _268  and  _271
REMARK  109  A    between atoms: _271  and  _272
REMARK  110  A    between atoms: _272  and  _273
REMARK  111  A    between atoms: _273  and  _274
REMARK  112  A    between atoms: _274  and  _275
REMARK  113  A    between atoms: _279  and  _281
REMARK  114  A    between atoms: _281  and  _282
REMARK  115  A    between atoms: _281  and  _284
REMARK  116  A    between atoms: _284  and  _285
REMARK  117  A    between atoms: _288  and  _290
REMARK  118  A    between atoms: _290  and  _291
REMARK  119  A    between atoms: _290  and  _293
REMARK  120  A    between atoms: _293  and  _294
REMARK  121  A    between atoms: _299  and  _301
REMARK  122  A    between atoms: _301  and  _302
REMARK  123  A    between atoms: _305  and  _307
REMARK  124  A    between atoms: _307  and  _308
REMARK  125  A    between atoms: _307  and  _310
REMARK  126  A    between atoms: _310  and  _311
REMARK  127  A    between atoms: _316  and  _317
REMARK  128  A    between atoms: _319  and  _321
REMARK  129  A    between atoms: _321  and  _322
REMARK  130  A    between atoms: _321  and  _324
REMARK  131  A    between atoms: _324  and  _325
REMARK  132  A    between atoms: _328  and  _330
REMARK  133  A    between atoms: _330  and  _331
REMARK  134  A    between atoms: _334  and  _336
REMARK  135  A    between atoms: _336  and  _337
REMARK  136  A    between atoms: _336  and  _339
REMARK  137  A    between atoms: _339  and  _340
REMARK  138  A    between atoms: _340  and  _341
REMARK  139  A    between atoms: _341  and  _342
REMARK  140  A    between atoms: _351  and  _353
REMARK  141  A    between atoms: _353  and  _354
REMARK  142  A    between atoms: _353  and  _356
REMARK  143  A    between atoms: _356  and  _357
REMARK  144  A    between atoms: _362  and  _364
REMARK  145  A    between atoms: _364  and  _365
REMARK  146  A    between atoms: _364  and  _367
REMARK  147  A    between atoms: _367  and  _368
REMARK  148  A    between atoms: _374  and  _376
REMARK  149  A    between atoms: _376  and  _377
REMARK  150  A    between atoms: _376  and  _379
REMARK  151  A    between atoms: _379  and  _380
REMARK  152  A    between atoms: _384  and  _385
REMARK  153  A    between atoms: _390  and  _392
REMARK  154  A    between atoms: _392  and  _393
REMARK  155  A    between atoms: _392  and  _395
REMARK  156  A    between atoms: _395  and  _396
REMARK  157  A    between atoms: _399  and  _401
REMARK  158  A    between atoms: _401  and  _402
REMARK  159  A    between atoms: _401  and  _404
REMARK  160  A    between atoms: _407  and  _409
REMARK  161  A    between atoms: _409  and  _410
REMARK  162  A    between atoms: _409  and  _412
REMARK  163  A    between atoms: _412  and  _413
REMARK  164  A    between atoms: _418  and  _420
REMARK  165  A    between atoms: _420  and  _421
REMARK  166  A    between atoms: _420  and  _423
REMARK  167  A    between atoms: _423  and  _424
REMARK  168  A    between atoms: _427  and  _429
REMARK  169  A    between atoms: _429  and  _430
REMARK  170  A    between atoms: _429  and  _432
REMARK  171  A    between atoms: _432  and  _433
REMARK  172  A    between atoms: _435  and  _437
REMARK  173  A    between atoms: _437  and  _438
REMARK  174  A    between atoms: _437  and  _440
REMARK  175  A    between atoms: _440  and  _441
REMARK  176  A    between atoms: _447  and  _449
REMARK  177  A    between atoms: _449  and  _450
REMARK  178  A    between atoms: _449  and  _452
REMARK  179  A    between atoms: _452  and  _453
REMARK  180  A    between atoms: _458  and  _460
REMARK  181  A    between atoms: _460  and  _461
REMARK  182  A    between atoms: _460  and  _463
REMARK  183  A    between atoms: _463  and  _464
REMARK  184  A    between atoms: _467  and  _469
REMARK  185  A    between atoms: _469  and  _470
REMARK  186  A    between atoms: _472  and  _474
REMARK  187  A    between atoms: _474  and  _475
REMARK  188  A    between atoms: _474  and  _477
REMARK  189  A    between atoms: _477  and  _478
REMARK  190  A    between atoms: _478  and  _479
REMARK  191  A    between atoms: _484  and  _486
REMARK  192  A    between atoms: _486  and  _487
REMARK  193  A    between atoms: _490  and  _492
REMARK  194  A    between atoms: _492  and  _493
REMARK  195  A    between atoms: _492  and  _495
REMARK  196  A    between atoms: _495  and  _496
REMARK  197  A    between atoms: _499  and  _501
REMARK  198  A    between atoms: _501  and  _502
REMARK  199  A    between atoms: _505  and  _507
REMARK  200  A    between atoms: _507  and  _508
REMARK  201  A    between atoms: _507  and  _510
REMARK  202  A    between atoms: _510  and  _511
REMARK  203  A    between atoms: _516  and  _518
REMARK  204  A    between atoms: _518  and  _519
REMARK  205  A    between atoms: _518  and  _521
REMARK  206  A    between atoms: _521  and  _522
REMARK  207  A    between atoms: _527  and  _528
REMARK  208  A    between atoms: _530  and  _532
REMARK  209  A    between atoms: _532  and  _533
REMARK  210  A    between atoms: _532  and  _535
REMARK  211  A    between atoms: _535  and  _536
REMARK  212  A    between atoms: _539  and  _541
REMARK  213  A    between atoms: _541  and  _542
REMARK  214  A    between atoms: _541  and  _544
REMARK  215  A    between atoms: _544  and  _545
REMARK  216  A    between atoms: _547  and  _549
REMARK  217  A    between atoms: _549  and  _550
REMARK  218  A    between atoms: _549  and  _552
REMARK  219  A    between atoms: _552  and  _553
REMARK  220  A    between atoms: _559  and  _561
REMARK  221  A    between atoms: _561  and  _562
REMARK  222  A    between atoms: _561  and  _564
REMARK  223  A    between atoms: _564  and  _565
REMARK  224  A    between atoms: _565  and  _566
REMARK  225  A    between atoms: _569  and  _571
REMARK  226  A    between atoms: _571  and  _572
REMARK  227  A    between atoms: _571  and  _574
REMARK  228  A    between atoms: _574  and  _575
REMARK  229  A    between atoms: _575  and  _576
REMARK  230  A    between atoms: _576  and  _577
REMARK  231  A    between atoms: _577  and  _578
REMARK  232  A    between atoms: _582  and  _584
REMARK  233  A    between atoms: _584  and  _585
REMARK  234  A    between atoms: _584  and  _587
REMARK  235  A    between atoms: _587  and  _588
REMARK  236  A    between atoms: _590  and  _592
REMARK  237  A    between atoms: _592  and  _593
REMARK  238  A    between atoms: _592  and  _595
REMARK  239  A    between atoms: _595  and  _596
REMARK  240  A    between atoms: _596  and  _597
REMARK  241  A    between atoms: _597  and  _598
REMARK                            x       y       z     vdW  Elec       q    Type
REMARK                         _______ _______ _______ _____ _____    ______ ____
ROOT
ATOM      1  O   HOH     1      15.887  20.724  26.922  0.00  0.00    +0.000 OA
ENDROOT
TORSDOF 0
REMARK  Name = ../refined-set-2016/3wgg/3wgg_pocket.pdb
REMARK  241 active torsions:
REMARK  status: ('A' for Active; 'I' for Inactive)
REMARK    1  A    between atoms: _1  and  _3
REMARK    2  A    between atoms: _3  and  _4
REMARK    3  A    between atoms: _3  and  _6
REMARK    4  A    between atoms: _6  and  _7
REMARK    5  A    between atoms: _10  and  _12
REMARK    6  A    between atoms: _12  and  _13
REMARK    7  A    between atoms: _12  and  _15
REMARK    8  A    between atoms: _15  and  _16
REMARK    9  A    between atoms: _19  and  _21
REMARK   10  A    between atoms: _21  and  _22
REMARK   11  A    between atoms: _24  and  _26
REMARK   12  A    between atoms: _26  and  _27
REMARK   13  A    between atoms: _30  and  _32
REMARK   14  A    between atoms: _32  and  _33
REMARK   15  A    between atoms: _35  and  _37
REMARK   16  A    between atoms: _37  and  _38
REMARK   17  A    between atoms: _37  and  _40
REMARK   18  A    between atoms: _40  and  _41
REMARK   19  A    between atoms: _46  and  _48
REMARK   20  A    between atoms: _48  and  _49
REMARK   21  A    between atoms: _48  and  _51
REMARK   22  A    between atoms: _51  and  _52
REMARK   23  A    between atoms: _55  and  _57
REMARK   24  A    between atoms: _57  and  _58
REMARK   25  A    between atoms: _60  and  _62
REMARK   26  A    between atoms: _62  and  _63
REMARK   27  A    between atoms: _62  and  _65
REMARK   28  A    between atoms: _65  and  _66
REMARK   29  A    between atoms: _66  and  _67
REMARK   30  A    between atoms: _72  and  _74
REMARK   31  A    between atoms: _74  and  _75
REMARK   32  A    between atoms: _78  and  _80
REMARK   33  A    between atoms: _80  and  _81
REMARK   34  A    between atoms: _80  and  _83
REMARK   35  A    between atoms: _83  and  _84
REMARK   36  A    between atoms: _87  and  _89
REMARK   37  A    between atoms: _89  and  _90
REMARK   38  A    between atoms: _89  and  _92
REMARK   39  A    between atoms: _92  and  _93
REMARK   40  A    between atoms: _96  and  _98
REMARK   41  A    between atoms: _98  and  _99
REMARK   42  A    between atoms: _98  and  _101
REMARK   43  A    between atoms: _101  and  _102
REMARK   44  A    between atoms: _108  and  _110
REMARK   45  A    between atoms: _110  and  _111
REMARK   46  A    between atoms: _110  and  _113
REMARK   47  A    between atoms: _113  and  _114
REMARK   48  A    between atoms: _117  and  _119
REMARK   49  A    between atoms: _119  and  _120
REMARK   50  A    between atoms: _119  and  _122
REMARK   51  A    between atoms: _122  and  _123
REMARK   52  A    between atoms: _126  and  _128
REMARK   53  A    between atoms: _128  and  _129
REMARK   54  A    between atoms: _128  and  _131
REMARK   55  A    between atoms: _131  and  _132
REMARK   56  A    between atoms: _138  and  _139
REMARK   57  A    between atoms: _144  and  _146
REMARK   58  A    between atoms: _146  and  _147
REMARK   59  A    between atoms: _146  and  _149
REMARK   60  A    between atoms: _149  and  _150
REMARK   61  A    between atoms: _150  and  _151
REMARK   62  A    between atoms: _151  and  _152
REMARK   63  A    between atoms: _161  and  _163
REMARK   64  A    between atoms: _163  and  _164
REMARK   65  A    between atoms: _163  and  _166
REMARK   66  A    between atoms: _166  and  _167
REMARK   67  A    between atoms: _170  and  _172
REMARK   68  A    between atoms: _172  and  _173
REMARK   69  A    between atoms: _172  and  _175
REMARK   70  A    between atoms: _175  and  _176
REMARK   71  A    between atoms: _182  and  _184
REMARK   72  A    between atoms: _184  and  _185
REMARK   73  A    between atoms: _184  and  _187
REMARK   74  A    between atoms: _190  and  _192
REMARK   75  A    between atoms: _192  and  _193
REMARK   76  A    between atoms: _192  and  _195
REMARK   77  A    between atoms: _195  and  _196
REMARK   78  A    between atoms: _196  and  _197
REMARK   79  A    between atoms: _199  and  _201
REMARK   80  A    between atoms: _201  and  _202
REMARK   81  A    between atoms: _201  and  _204
REMARK   82  A    between atoms: _204  and  _205
REMARK   83  A    between atoms: _208  and  _210
REMARK   84  A    between atoms: _210  and  _211
REMARK   85  A    between atoms: _210  and  _213
REMARK   86  A    between atoms: _216  and  _218
REMARK   87  A    between atoms: _218  and  _219
REMARK   88  A    between atoms: _218  and  _221
REMARK   89  A    between atoms: _221  and  _222
REMARK   90  A    between atoms: _222  and  _223
REMARK   91  A    between atoms: _226  and  _228
REMARK   92  A    between atoms: _228  and  _229
REMARK   93  A    between atoms: _228  and  _231
REMARK   94  A    between atoms: _234  and  _236
REMARK   95  A    between atoms: _236  and  _237
REMARK   96  A    between atoms: _236  and  _239
REMARK   97  A    between atoms: _239  and  _240
REMARK   98  A    between atoms: _243  and  _245
REMARK   99  A    between atoms: _245  and  _246
REMARK  100  A    between atoms: _245  and  _248
REMARK  101  A    between atoms: _250  and  _252
REMARK  102  A    between atoms: _252  and  _253
REMARK  103  A    between atoms: _252  and  _255
REMARK  104  A    between atoms: _255  and  _256
REMARK  105  A    between atoms: _260  and  _261
REMARK  106  A    between atoms: _266  and  _268
REMARK  107  A    between atoms: _268  and  _269
REMARK  108  A    between atoms: _268  and  _271
REMARK  109  A    between atoms: _271  and  _272
REMARK  110  A    between atoms: _272  and  _273
REMARK  111  A    between atoms: _273  and  _274
REMARK  112  A    between atoms: _274  and  _275
REMARK  113  A    between atoms: _279  and  _281
REMARK  114  A    between atoms: _281  and  _282
REMARK  115  A    between atoms: _281  and  _284
REMARK  116  A    between atoms: _284  and  _285
REMARK  117  A    between atoms: _288  and  _290
REMARK  118  A    between atoms: _290  and  _291
REMARK  119  A    between atoms: _290  and  _293
REMARK  120  A    between atoms: _293  and  _294
REMARK  121  A    between atoms: _299  and  _301
REMARK  122  A    between atoms: _301  and  _302
REMARK  123  A    between atoms: _305  and  _307
REMARK  124  A    between atoms: _307  and  _308
REMARK  125  A    between atoms: _307  and  _310
REMARK  126  A    between atoms: _310  and  _311
REMARK  127  A    between atoms: _316  and  _317
REMARK  128  A    between atoms: _319  and  _321
REMARK  129  A    between atoms: _321  and  _322
REMARK  130  A    between atoms: _321  and  _324
REMARK  131  A    between atoms: _324  and  _325
REMARK  132  A    between atoms: _328  and  _330
REMARK  133  A    between atoms: _330  and  _331
REMARK  134  A    between atoms: _334  and  _336
REMARK  135  A    between atoms: _336  and  _337
REMARK  136  A    between atoms: _336  and  _339
REMARK  137  A    between atoms: _339  and  _340
REMARK  138  A    between atoms: _340  and  _341
REMARK  139  A    between atoms: _341  and  _342
REMARK  140  A    between atoms: _351  and  _353
REMARK  141  A    between atoms: _353  and  _354
REMARK  142  A    between atoms: _353  and  _356
REMARK  143  A    between atoms: _356  and  _357
REMARK  144  A    between atoms: _362  and  _364
REMARK  145  A    between atoms: _364  and  _365
REMARK  146  A    between atoms: _364  and  _367
REMARK  147  A    between atoms: _367  and  _368
REMARK  148  A    between atoms: _374  and  _376
REMARK  149  A    between atoms: _376  and  _377
REMARK  150  A    between atoms: _376  and  _379
REMARK  151  A    between atoms: _379  and  _380
REMARK  152  A    between atoms: _384  and  _385
REMARK  153  A    between atoms: _390  and  _392
REMARK  154  A    between atoms: _392  and  _393
REMARK  155  A    between atoms: _392  and  _395
REMARK  156  A    between atoms: _395  and  _396
REMARK  157  A    between atoms: _399  and  _401
REMARK  158  A    between atoms: _401  and  _402
REMARK  159  A    between atoms: _401  and  _404
REMARK  160  A    between atoms: _407  and  _409
REMARK  161  A    between atoms: _409  and  _410
REMARK  162  A    between atoms: _409  and  _412
REMARK  163  A    between atoms: _412  and  _413
REMARK  164  A    between atoms: _418  and  _420
REMARK  165  A    between atoms: _420  and  _421
REMARK  166  A    between atoms: _420  and  _423
REMARK  167  A    between atoms: _423  and  _424
REMARK  168  A    between atoms: _427  and  _429
REMARK  169  A    between atoms: _429  and  _430
REMARK  170  A    between atoms: _429  and  _432
REMARK  171  A    between atoms: _432  and  _433
REMARK  172  A    between atoms: _435  and  _437
REMARK  173  A    between atoms: _437  and  _438
REMARK  174  A    between atoms: _437  and  _440
REMARK  175  A    between atoms: _440  and  _441
REMARK  176  A    between atoms: _447  and  _449
REMARK  177  A    between atoms: _449  and  _450
REMARK  178  A    between atoms: _449  and  _452
REMARK  179  A    between atoms: _452  and  _453
REMARK  180  A    between atoms: _458  and  _460
REMARK  181  A    between atoms: _460  and  _461
REMARK  182  A    between atoms: _460  and  _463
REMARK  183  A    between atoms: _463  and  _464
REMARK  184  A    between atoms: _467  and  _469
REMARK  185  A    between atoms: _469  and  _470
REMARK  186  A    between atoms: _472  and  _474
REMARK  187  A    between atoms: _474  and  _475
REMARK  188  A    between atoms: _474  and  _477
REMARK  189  A    between atoms: _477  and  _478
REMARK  190  A    between atoms: _478  and  _479
REMARK  191  A    between atoms: _484  and  _486
REMARK  192  A    between atoms: _486  and  _487
REMARK  193  A    between atoms: _490  and  _492
REMARK  194  A    between atoms: _492  and  _493
REMARK  195  A    between atoms: _492  and  _495
REMARK  196  A    between atoms: _495  and  _496
REMARK  197  A    between atoms: _499  and  _501
REMARK  198  A    between atoms: _501  and  _502
REMARK  199  A    between atoms: _505  and  _507
REMARK  200  A    between atoms: _507  and  _508
REMARK  201  A    between atoms: _507  and  _510
REMARK  202  A    between atoms: _510  and  _511
REMARK  203  A    between atoms: _516  and  _518
REMARK  204  A    between atoms: _518  and  _519
REMARK  205  A    between atoms: _518  and  _521
REMARK  206  A    between atoms: _521  and  _522
REMARK  207  A    between atoms: _527  and  _528
REMARK  208  A    between atoms: _530  and  _532
REMARK  209  A    between atoms: _532  and  _533
REMARK  210  A    between atoms: _532  and  _535
REMARK  211  A    between atoms: _535  and  _536
REMARK  212  A    between atoms: _539  and  _541
REMARK  213  A    between atoms: _541  and  _542
REMARK  214  A    between atoms: _541  and  _544
REMARK  215  A    between atoms: _544  and  _545
REMARK  216  A    between atoms: _547  and  _549
REMARK  217  A    between atoms: _549  and  _550
REMARK  218  A    between atoms: _549  and  _552
REMARK  219  A    between atoms: _552  and  _553
REMARK  220  A    between atoms: _559  and  _561
REMARK  221  A    between atoms: _561  and  _562
REMARK  222  A    between atoms: _561  and  _564
REMARK  223  A    between atoms: _564  and  _565
REMARK  224  A    between atoms: _565  and  _566
REMARK  225  A    between atoms: _569  and  _571
REMARK  226  A    between atoms: _571  and  _572
REMARK  227  A    between atoms: _571  and  _574
REMARK  228  A    between atoms: _574  and  _575
REMARK  229  A    between atoms: _575  and  _576
REMARK  230  A    between atoms: _576  and  _577
REMARK  231  A    between atoms: _577  and  _578
REMARK  232  A    between atoms: _582  and  _584
REMARK  233  A    between atoms: _584  and  _585
REMARK  234  A    between atoms: _584  and  _587
REMARK  235  A    between atoms: _587  and  _588
REMARK  236  A    between atoms: _590  and  _592
REMARK  237  A    between atoms: _592  and  _593
REMARK  238  A    between atoms: _592  and  _595
REMARK  239  A    between atoms: _595  and  _596
REMARK  240  A    between atoms: _596  and  _597
REMARK  241  A    between atoms: _597  and  _598
REMARK                            x       y       z     vdW  Elec       q    Type
REMARK                         _______ _______ _______ _____ _____    ______ ____
ROOT
ATOM      1  O   HOH     1      -3.373  13.902  11.578  0.00  0.00    +0.000 OA
ENDROOT
TORSDOF 0
REMARK  Name = ../refined-set-2016/3wgg/3wgg_pocket.pdb
REMARK  241 active torsions:
REMARK  status: ('A' for Active; 'I' for Inactive)
REMARK    1  A    between atoms: _1  and  _3
REMARK    2  A    between atoms: _3  and  _4
REMARK    3  A    between atoms: _3  and  _6
REMARK    4  A    between atoms: _6  and  _7
REMARK    5  A    between atoms: _10  and  _12
REMARK    6  A    between atoms: _12  and  _13
REMARK    7  A    between atoms: _12  and  _15
REMARK    8  A    between atoms: _15  and  _16
REMARK    9  A    between atoms: _19  and  _21
REMARK   10  A    between atoms: _21  and  _22
REMARK   11  A    between atoms: _24  and  _26
REMARK   12  A    between atoms: _26  and  _27
REMARK   13  A    between atoms: _30  and  _32
REMARK   14  A    between atoms: _32  and  _33
REMARK   15  A    between atoms: _35  and  _37
REMARK   16  A    between atoms: _37  and  _38
REMARK   17  A    between atoms: _37  and  _40
REMARK   18  A    between atoms: _40  and  _41
REMARK   19  A    between atoms: _46  and  _48
REMARK   20  A    between atoms: _48  and  _49
REMARK   21  A    between atoms: _48  and  _51
REMARK   22  A    between atoms: _51  and  _52
REMARK   23  A    between atoms: _55  and  _57
REMARK   24  A    between atoms: _57  and  _58
REMARK   25  A    between atoms: _60  and  _62
REMARK   26  A    between atoms: _62  and  _63
REMARK   27  A    between atoms: _62  and  _65
REMARK   28  A    between atoms: _65  and  _66
REMARK   29  A    between atoms: _66  and  _67
REMARK   30  A    between atoms: _72  and  _74
REMARK   31  A    between atoms: _74  and  _75
REMARK   32  A    between atoms: _78  and  _80
REMARK   33  A    between atoms: _80  and  _81
REMARK   34  A    between atoms: _80  and  _83
REMARK   35  A    between atoms: _83  and  _84
REMARK   36  A    between atoms: _87  and  _89
REMARK   37  A    between atoms: _89  and  _90
REMARK   38  A    between atoms: _89  and  _92
REMARK   39  A    between atoms: _92  and  _93
REMARK   40  A    between atoms: _96  and  _98
REMARK   41  A    between atoms: _98  and  _99
REMARK   42  A    between atoms: _98  and  _101
REMARK   43  A    between atoms: _101  and  _102
REMARK   44  A    between atoms: _108  and  _110
REMARK   45  A    between atoms: _110  and  _111
REMARK   46  A    between atoms: _110  and  _113
REMARK   47  A    between atoms: _113  and  _114
REMARK   48  A    between atoms: _117  and  _119
REMARK   49  A    between atoms: _119  and  _120
REMARK   50  A    between atoms: _119  and  _122
REMARK   51  A    between atoms: _122  and  _123
REMARK   52  A    between atoms: _126  and  _128
REMARK   53  A    between atoms: _128  and  _129
REMARK   54  A    between atoms: _128  and  _131
REMARK   55  A    between atoms: _131  and  _132
REMARK   56  A    between atoms: _138  and  _139
REMARK   57  A    between atoms: _144  and  _146
REMARK   58  A    between atoms: _146  and  _147
REMARK   59  A    between atoms: _146  and  _149
REMARK   60  A    between atoms: _149  and  _150
REMARK   61  A    between atoms: _150  and  _151
REMARK   62  A    between atoms: _151  and  _152
REMARK   63  A    between atoms: _161  and  _163
REMARK   64  A    between atoms: _163  and  _164
REMARK   65  A    between atoms: _163  and  _166
REMARK   66  A    between atoms: _166  and  _167
REMARK   67  A    between atoms: _170  and  _172
REMARK   68  A    between atoms: _172  and  _173
REMARK   69  A    between atoms: _172  and  _175
REMARK   70  A    between atoms: _175  and  _176
REMARK   71  A    between atoms: _182  and  _184
REMARK   72  A    between atoms: _184  and  _185
REMARK   73  A    between atoms: _184  and  _187
REMARK   74  A    between atoms: _190  and  _192
REMARK   75  A    between atoms: _192  and  _193
REMARK   76  A    between atoms: _192  and  _195
REMARK   77  A    between atoms: _195  and  _196
REMARK   78  A    between atoms: _196  and  _197
REMARK   79  A    between atoms: _199  and  _201
REMARK   80  A    between atoms: _201  and  _202
REMARK   81  A    between atoms: _201  and  _204
REMARK   82  A    between atoms: _204  and  _205
REMARK   83  A    between atoms: _208  and  _210
REMARK   84  A    between atoms: _210  and  _211
REMARK   85  A    between atoms: _210  and  _213
REMARK   86  A    between atoms: _216  and  _218
REMARK   87  A    between atoms: _218  and  _219
REMARK   88  A    between atoms: _218  and  _221
REMARK   89  A    between atoms: _221  and  _222
REMARK   90  A    between atoms: _222  and  _223
REMARK   91  A    between atoms: _226  and  _228
REMARK   92  A    between atoms: _228  and  _229
REMARK   93  A    between atoms: _228  and  _231
REMARK   94  A    between atoms: _234  and  _236
REMARK   95  A    between atoms: _236  and  _237
REMARK   96  A    between atoms: _236  and  _239
REMARK   97  A    between atoms: _239  and  _240
REMARK   98  A    between atoms: _243  and  _245
REMARK   99  A    between atoms: _245  and  _246
REMARK  100  A    between atoms: _245  and  _248
REMARK  101  A    between atoms: _250  and  _252
REMARK  102  A    between atoms: _252  and  _253
REMARK  103  A    between atoms: _252  and  _255
REMARK  104  A    between atoms: _255  and  _256
REMARK  105  A    between atoms: _260  and  _261
REMARK  106  A    between atoms: _266  and  _268
REMARK  107  A    between atoms: _268  and  _269
REMARK  108  A    between atoms: _268  and  _271
REMARK  109  A    between atoms: _271  and  _272
REMARK  110  A    between atoms: _272  and  _273
REMARK  111  A    between atoms: _273  and  _274
REMARK  112  A    between atoms: _274  and  _275
REMARK  113  A    between atoms: _279  and  _281
REMARK  114  A    between atoms: _281  and  _282
REMARK  115  A    between atoms: _281  and  _284
REMARK  116  A    between atoms: _284  and  _285
REMARK  117  A    between atoms: _288  and  _290
REMARK  118  A    between atoms: _290  and  _291
REMARK  119  A    between atoms: _290  and  _293
REMARK  120  A    between atoms: _293  and  _294
REMARK  121  A    between atoms: _299  and  _301
REMARK  122  A    between atoms: _301  and  _302
REMARK  123  A    between atoms: _305  and  _307
REMARK  124  A    between atoms: _307  and  _308
REMARK  125  A    between atoms: _307  and  _310
REMARK  126  A    between atoms: _310  and  _311
REMARK  127  A    between atoms: _316  and  _317
REMARK  128  A    between atoms: _319  and  _321
REMARK  129  A    between atoms: _321  and  _322
REMARK  130  A    between atoms: _321  and  _324
REMARK  131  A    between atoms: _324  and  _325
REMARK  132  A    between atoms: _328  and  _330
REMARK  133  A    between atoms: _330  and  _331
REMARK  134  A    between atoms: _334  and  _336
REMARK  135  A    between atoms: _336  and  _337
REMARK  136  A    between atoms: _336  and  _339
REMARK  137  A    between atoms: _339  and  _340
REMARK  138  A    between atoms: _340  and  _341
REMARK  139  A    between atoms: _341  and  _342
REMARK  140  A    between atoms: _351  and  _353
REMARK  141  A    between atoms: _353  and  _354
REMARK  142  A    between atoms: _353  and  _356
REMARK  143  A    between atoms: _356  and  _357
REMARK  144  A    between atoms: _362  and  _364
REMARK  145  A    between atoms: _364  and  _365
REMARK  146  A    between atoms: _364  and  _367
REMARK  147  A    between atoms: _367  and  _368
REMARK  148  A    between atoms: _374  and  _376
REMARK  149  A    between atoms: _376  and  _377
REMARK  150  A    between atoms: _376  and  _379
REMARK  151  A    between atoms: _379  and  _380
REMARK  152  A    between atoms: _384  and  _385
REMARK  153  A    between atoms: _390  and  _392
REMARK  154  A    between atoms: _392  and  _393
REMARK  155  A    between atoms: _392  and  _395
REMARK  156  A    between atoms: _395  and  _396
REMARK  157  A    between atoms: _399  and  _401
REMARK  158  A    between atoms: _401  and  _402
REMARK  159  A    between atoms: _401  and  _404
REMARK  160  A    between atoms: _407  and  _409
REMARK  161  A    between atoms: _409  and  _410
REMARK  162  A    between atoms: _409  and  _412
REMARK  163  A    between atoms: _412  and  _413
REMARK  164  A    between atoms: _418  and  _420
REMARK  165  A    between atoms: _420  and  _421
REMARK  166  A    between atoms: _420  and  _423
REMARK  167  A    between atoms: _423  and  _424
REMARK  168  A    between atoms: _427  and  _429
REMARK  169  A    between atoms: _429  and  _430
REMARK  170  A    between atoms: _429  and  _432
REMARK  171  A    between atoms: _432  and  _433
REMARK  172  A    between atoms: _435  and  _437
REMARK  173  A    between atoms: _437  and  _438
REMARK  174  A    between atoms: _437  and  _440
REMARK  175  A    between atoms: _440  and  _441
REMARK  176  A    between atoms: _447  and  _449
REMARK  177  A    between atoms: _449  and  _450
REMARK  178  A    between atoms: _449  and  _452
REMARK  179  A    between atoms: _452  and  _453
REMARK  180  A    between atoms: _458  and  _460
REMARK  181  A    between atoms: _460  and  _461
REMARK  182  A    between atoms: _460  and  _463
REMARK  183  A    between atoms: _463  and  _464
REMARK  184  A    between atoms: _467  and  _469
REMARK  185  A    between atoms: _469  and  _470
REMARK  186  A    between atoms: _472  and  _474
REMARK  187  A    between atoms: _474  and  _475
REMARK  188  A    between atoms: _474  and  _477
REMARK  189  A    between atoms: _477  and  _478
REMARK  190  A    between atoms: _478  and  _479
REMARK  191  A    between atoms: _484  and  _486
REMARK  192  A    between atoms: _486  and  _487
REMARK  193  A    between atoms: _490  and  _492
REMARK  194  A    between atoms: _492  and  _493
REMARK  195  A    between atoms: _492  and  _495
REMARK  196  A    between atoms: _495  and  _496
REMARK  197  A    between atoms: _499  and  _501
REMARK  198  A    between atoms: _501  and  _502
REMARK  199  A    between atoms: _505  and  _507
REMARK  200  A    between atoms: _507  and  _508
REMARK  201  A    between atoms: _507  and  _510
REMARK  202  A    between atoms: _510  and  _511
REMARK  203  A    between atoms: _516  and  _518
REMARK  204  A    between atoms: _518  and  _519
REMARK  205  A    between atoms: _518  and  _521
REMARK  206  A    between atoms: _521  and  _522
REMARK  207  A    between atoms: _527  and  _528
REMARK  208  A    between atoms: _530  and  _532
REMARK  209  A    between atoms: _532  and  _533
REMARK  210  A    between atoms: _532  and  _535
REMARK  211  A    between atoms: _535  and  _536
REMARK  212  A    between atoms: _539  and  _541
REMARK  213  A    between atoms: _541  and  _542
REMARK  214  A    between atoms: _541  and  _544
REMARK  215  A    between atoms: _544  and  _545
REMARK  216  A    between atoms: _547  and  _549
REMARK  217  A    between atoms: _549  and  _550
REMARK  218  A    between atoms: _549  and  _552
REMARK  219  A    between atoms: _552  and  _553
REMARK  220  A    between atoms: _559  and  _561
REMARK  221  A    between atoms: _561  and  _562
REMARK  222  A    between atoms: _561  and  _564
REMARK  223  A    between atoms: _564  and  _565
REMARK  224  A    between atoms: _565  and  _566
REMARK  225  A    between atoms: _569  and  _571
REMARK  226  A    between atoms: _571  and  _572
REMARK  227  A    between atoms: _571  and  _574
REMARK  228  A    between atoms: _574  and  _575
REMARK  229  A    between atoms: _575  and  _576
REMARK  230  A    between atoms: _576  and  _577
REMARK  231  A    between atoms: _577  and  _578
REMARK  232  A    between atoms: _582  and  _584
REMARK  233  A    between atoms: _584  and  _585
REMARK  234  A    between atoms: _584  and  _587
REMARK  235  A    between atoms: _587  and  _588
REMARK  236  A    between atoms: _590  and  _592
REMARK  237  A    between atoms: _592  and  _593
REMARK  238  A    between atoms: _592  and  _595
REMARK  239  A    between atoms: _595  and  _596
REMARK  240  A    between atoms: _596  and  _597
REMARK  241  A    between atoms: _597  and  _598
REMARK                            x       y       z     vdW  Elec       q    Type
REMARK                         _______ _______ _______ _____ _____    ______ ____
ROOT
ATOM      1  O   HOH     1       5.638  22.067  21.027  0.00  0.00    +0.000 OA
ENDROOT
TORSDOF 0
REMARK  Name = ../refined-set-2016/3wgg/3wgg_pocket.pdb
REMARK  241 active torsions:
REMARK  status: ('A' for Active; 'I' for Inactive)
REMARK    1  A    between atoms: _1  and  _3
REMARK    2  A    between atoms: _3  and  _4
REMARK    3  A    between atoms: _3  and  _6
REMARK    4  A    between atoms: _6  and  _7
REMARK    5  A    between atoms: _10  and  _12
REMARK    6  A    between atoms: _12  and  _13
REMARK    7  A    between atoms: _12  and  _15
REMARK    8  A    between atoms: _15  and  _16
REMARK    9  A    between atoms: _19  and  _21
REMARK   10  A    between atoms: _21  and  _22
REMARK   11  A    between atoms: _24  and  _26
REMARK   12  A    between atoms: _26  and  _27
REMARK   13  A    between atoms: _30  and  _32
REMARK   14  A    between atoms: _32  and  _33
REMARK   15  A    between atoms: _35  and  _37
REMARK   16  A    between atoms: _37  and  _38
REMARK   17  A    between atoms: _37  and  _40
REMARK   18  A    between atoms: _40  and  _41
REMARK   19  A    between atoms: _46  and  _48
REMARK   20  A    between atoms: _48  and  _49
REMARK   21  A    between atoms: _48  and  _51
REMARK   22  A    between atoms: _51  and  _52
REMARK   23  A    between atoms: _55  and  _57
REMARK   24  A    between atoms: _57  and  _58
REMARK   25  A    between atoms: _60  and  _62
REMARK   26  A    between atoms: _62  and  _63
REMARK   27  A    between atoms: _62  and  _65
REMARK   28  A    between atoms: _65  and  _66
REMARK   29  A    between atoms: _66  and  _67
REMARK   30  A    between atoms: _72  and  _74
REMARK   31  A    between atoms: _74  and  _75
REMARK   32  A    between atoms: _78  and  _80
REMARK   33  A    between atoms: _80  and  _81
REMARK   34  A    between atoms: _80  and  _83
REMARK   35  A    between atoms: _83  and  _84
REMARK   36  A    between atoms: _87  and  _89
REMARK   37  A    between atoms: _89  and  _90
REMARK   38  A    between atoms: _89  and  _92
REMARK   39  A    between atoms: _92  and  _93
REMARK   40  A    between atoms: _96  and  _98
REMARK   41  A    between atoms: _98  and  _99
REMARK   42  A    between atoms: _98  and  _101
REMARK   43  A    between atoms: _101  and  _102
REMARK   44  A    between atoms: _108  and  _110
REMARK   45  A    between atoms: _110  and  _111
REMARK   46  A    between atoms: _110  and  _113
REMARK   47  A    between atoms: _113  and  _114
REMARK   48  A    between atoms: _117  and  _119
REMARK   49  A    between atoms: _119  and  _120
REMARK   50  A    between atoms: _119  and  _122
REMARK   51  A    between atoms: _122  and  _123
REMARK   52  A    between atoms: _126  and  _128
REMARK   53  A    between atoms: _128  and  _129
REMARK   54  A    between atoms: _128  and  _131
REMARK   55  A    between atoms: _131  and  _132
REMARK   56  A    between atoms: _138  and  _139
REMARK   57  A    between atoms: _144  and  _146
REMARK   58  A    between atoms: _146  and  _147
REMARK   59  A    between atoms: _146  and  _149
REMARK   60  A    between atoms: _149  and  _150
REMARK   61  A    between atoms: _150  and  _151
REMARK   62  A    between atoms: _151  and  _152
REMARK   63  A    between atoms: _161  and  _163
REMARK   64  A    between atoms: _163  and  _164
REMARK   65  A    between atoms: _163  and  _166
REMARK   66  A    between atoms: _166  and  _167
REMARK   67  A    between atoms: _170  and  _172
REMARK   68  A    between atoms: _172  and  _173
REMARK   69  A    between atoms: _172  and  _175
REMARK   70  A    between atoms: _175  and  _176
REMARK   71  A    between atoms: _182  and  _184
REMARK   72  A    between atoms: _184  and  _185
REMARK   73  A    between atoms: _184  and  _187
REMARK   74  A    between atoms: _190  and  _192
REMARK   75  A    between atoms: _192  and  _193
REMARK   76  A    between atoms: _192  and  _195
REMARK   77  A    between atoms: _195  and  _196
REMARK   78  A    between atoms: _196  and  _197
REMARK   79  A    between atoms: _199  and  _201
REMARK   80  A    between atoms: _201  and  _202
REMARK   81  A    between atoms: _201  and  _204
REMARK   82  A    between atoms: _204  and  _205
REMARK   83  A    between atoms: _208  and  _210
REMARK   84  A    between atoms: _210  and  _211
REMARK   85  A    between atoms: _210  and  _213
REMARK   86  A    between atoms: _216  and  _218
REMARK   87  A    between atoms: _218  and  _219
REMARK   88  A    between atoms: _218  and  _221
REMARK   89  A    between atoms: _221  and  _222
REMARK   90  A    between atoms: _222  and  _223
REMARK   91  A    between atoms: _226  and  _228
REMARK   92  A    between atoms: _228  and  _229
REMARK   93  A    between atoms: _228  and  _231
REMARK   94  A    between atoms: _234  and  _236
REMARK   95  A    between atoms: _236  and  _237
REMARK   96  A    between atoms: _236  and  _239
REMARK   97  A    between atoms: _239  and  _240
REMARK   98  A    between atoms: _243  and  _245
REMARK   99  A    between atoms: _245  and  _246
REMARK  100  A    between atoms: _245  and  _248
REMARK  101  A    between atoms: _250  and  _252
REMARK  102  A    between atoms: _252  and  _253
REMARK  103  A    between atoms: _252  and  _255
REMARK  104  A    between atoms: _255  and  _256
REMARK  105  A    between atoms: _260  and  _261
REMARK  106  A    between atoms: _266  and  _268
REMARK  107  A    between atoms: _268  and  _269
REMARK  108  A    between atoms: _268  and  _271
REMARK  109  A    between atoms: _271  and  _272
REMARK  110  A    between atoms: _272  and  _273
REMARK  111  A    between atoms: _273  and  _274
REMARK  112  A    between atoms: _274  and  _275
REMARK  113  A    between atoms: _279  and  _281
REMARK  114  A    between atoms: _281  and  _282
REMARK  115  A    between atoms: _281  and  _284
REMARK  116  A    between atoms: _284  and  _285
REMARK  117  A    between atoms: _288  and  _290
REMARK  118  A    between atoms: _290  and  _291
REMARK  119  A    between atoms: _290  and  _293
REMARK  120  A    between atoms: _293  and  _294
REMARK  121  A    between atoms: _299  and  _301
REMARK  122  A    between atoms: _301  and  _302
REMARK  123  A    between atoms: _305  and  _307
REMARK  124  A    between atoms: _307  and  _308
REMARK  125  A    between atoms: _307  and  _310
REMARK  126  A    between atoms: _310  and  _311
REMARK  127  A    between atoms: _316  and  _317
REMARK  128  A    between atoms: _319  and  _321
REMARK  129  A    between atoms: _321  and  _322
REMARK  130  A    between atoms: _321  and  _324
REMARK  131  A    between atoms: _324  and  _325
REMARK  132  A    between atoms: _328  and  _330
REMARK  133  A    between atoms: _330  and  _331
REMARK  134  A    between atoms: _334  and  _336
REMARK  135  A    between atoms: _336  and  _337
REMARK  136  A    between atoms: _336  and  _339
REMARK  137  A    between atoms: _339  and  _340
REMARK  138  A    between atoms: _340  and  _341
REMARK  139  A    between atoms: _341  and  _342
REMARK  140  A    between atoms: _351  and  _353
REMARK  141  A    between atoms: _353  and  _354
REMARK  142  A    between atoms: _353  and  _356
REMARK  143  A    between atoms: _356  and  _357
REMARK  144  A    between atoms: _362  and  _364
REMARK  145  A    between atoms: _364  and  _365
REMARK  146  A    between atoms: _364  and  _367
REMARK  147  A    between atoms: _367  and  _368
REMARK  148  A    between atoms: _374  and  _376
REMARK  149  A    between atoms: _376  and  _377
REMARK  150  A    between atoms: _376  and  _379
REMARK  151  A    between atoms: _379  and  _380
REMARK  152  A    between atoms: _384  and  _385
REMARK  153  A    between atoms: _390  and  _392
REMARK  154  A    between atoms: _392  and  _393
REMARK  155  A    between atoms: _392  and  _395
REMARK  156  A    between atoms: _395  and  _396
REMARK  157  A    between atoms: _399  and  _401
REMARK  158  A    between atoms: _401  and  _402
REMARK  159  A    between atoms: _401  and  _404
REMARK  160  A    between atoms: _407  and  _409
REMARK  161  A    between atoms: _409  and  _410
REMARK  162  A    between atoms: _409  and  _412
REMARK  163  A    between atoms: _412  and  _413
REMARK  164  A    between atoms: _418  and  _420
REMARK  165  A    between atoms: _420  and  _421
REMARK  166  A    between atoms: _420  and  _423
REMARK  167  A    between atoms: _423  and  _424
REMARK  168  A    between atoms: _427  and  _429
REMARK  169  A    between atoms: _429  and  _430
REMARK  170  A    between atoms: _429  and  _432
REMARK  171  A    between atoms: _432  and  _433
REMARK  172  A    between atoms: _435  and  _437
REMARK  173  A    between atoms: _437  and  _438
REMARK  174  A    between atoms: _437  and  _440
REMARK  175  A    between atoms: _440  and  _441
REMARK  176  A    between atoms: _447  and  _449
REMARK  177  A    between atoms: _449  and  _450
REMARK  178  A    between atoms: _449  and  _452
REMARK  179  A    between atoms: _452  and  _453
REMARK  180  A    between atoms: _458  and  _460
REMARK  181  A    between atoms: _460  and  _461
REMARK  182  A    between atoms: _460  and  _463
REMARK  183  A    between atoms: _463  and  _464
REMARK  184  A    between atoms: _467  and  _469
REMARK  185  A    between atoms: _469  and  _470
REMARK  186  A    between atoms: _472  and  _474
REMARK  187  A    between atoms: _474  and  _475
REMARK  188  A    between atoms: _474  and  _477
REMARK  189  A    between atoms: _477  and  _478
REMARK  190  A    between atoms: _478  and  _479
REMARK  191  A    between atoms: _484  and  _486
REMARK  192  A    between atoms: _486  and  _487
REMARK  193  A    between atoms: _490  and  _492
REMARK  194  A    between atoms: _492  and  _493
REMARK  195  A    between atoms: _492  and  _495
REMARK  196  A    between atoms: _495  and  _496
REMARK  197  A    between atoms: _499  and  _501
REMARK  198  A    between atoms: _501  and  _502
REMARK  199  A    between atoms: _505  and  _507
REMARK  200  A    between atoms: _507  and  _508
REMARK  201  A    between atoms: _507  and  _510
REMARK  202  A    between atoms: _510  and  _511
REMARK  203  A    between atoms: _516  and  _518
REMARK  204  A    between atoms: _518  and  _519
REMARK  205  A    between atoms: _518  and  _521
REMARK  206  A    between atoms: _521  and  _522
REMARK  207  A    between atoms: _527  and  _528
REMARK  208  A    between atoms: _530  and  _532
REMARK  209  A    between atoms: _532  and  _533
REMARK  210  A    between atoms: _532  and  _535
REMARK  211  A    between atoms: _535  and  _536
REMARK  212  A    between atoms: _539  and  _541
REMARK  213  A    between atoms: _541  and  _542
REMARK  214  A    between atoms: _541  and  _544
REMARK  215  A    between atoms: _544  and  _545
REMARK  216  A    between atoms: _547  and  _549
REMARK  217  A    between atoms: _549  and  _550
REMARK  218  A    between atoms: _549  and  _552
REMARK  219  A    between atoms: _552  and  _553
REMARK  220  A    between atoms: _559  and  _561
REMARK  221  A    between atoms: _561  and  _562
REMARK  222  A    between atoms: _561  and  _564
REMARK  223  A    between atoms: _564  and  _565
REMARK  224  A    between atoms: _565  and  _566
REMARK  225  A    between atoms: _569  and  _571
REMARK  226  A    between atoms: _571  and  _572
REMARK  227  A    between atoms: _571  and  _574
REMARK  228  A    between atoms: _574  and  _575
REMARK  229  A    between atoms: _575  and  _576
REMARK  230  A    between atoms: _576  and  _577
REMARK  231  A    between atoms: _577  and  _578
REMARK  232  A    between atoms: _582  and  _584
REMARK  233  A    between atoms: _584  and  _585
REMARK  234  A    between atoms: _584  and  _587
REMARK  235  A    between atoms: _587  and  _588
REMARK  236  A    between atoms: _590  and  _592
REMARK  237  A    between atoms: _592  and  _593
REMARK  238  A    between atoms: _592  and  _595
REMARK  239  A    between atoms: _595  and  _596
REMARK  240  A    between atoms: _596  and  _597
REMARK  241  A    between atoms: _597  and  _598
REMARK                            x       y       z     vdW  Elec       q    Type
REMARK                         _______ _______ _______ _____ _____    ______ ____
ROOT
ATOM      1  O   HOH     1      -3.038  25.727  13.155  0.00  0.00    +0.000 OA
ENDROOT
TORSDOF 0
REMARK  Name = ../refined-set-2016/3wgg/3wgg_pocket.pdb
REMARK  241 active torsions:
REMARK  status: ('A' for Active; 'I' for Inactive)
REMARK    1  A    between atoms: _1  and  _3
REMARK    2  A    between atoms: _3  and  _4
REMARK    3  A    between atoms: _3  and  _6
REMARK    4  A    between atoms: _6  and  _7
REMARK    5  A    between atoms: _10  and  _12
REMARK    6  A    between atoms: _12  and  _13
REMARK    7  A    between atoms: _12  and  _15
REMARK    8  A    between atoms: _15  and  _16
REMARK    9  A    between atoms: _19  and  _21
REMARK   10  A    between atoms: _21  and  _22
REMARK   11  A    between atoms: _24  and  _26
REMARK   12  A    between atoms: _26  and  _27
REMARK   13  A    between atoms: _30  and  _32
REMARK   14  A    between atoms: _32  and  _33
REMARK   15  A    between atoms: _35  and  _37
REMARK   16  A    between atoms: _37  and  _38
REMARK   17  A    between atoms: _37  and  _40
REMARK   18  A    between atoms: _40  and  _41
REMARK   19  A    between atoms: _46  and  _48
REMARK   20  A    between atoms: _48  and  _49
REMARK   21  A    between atoms: _48  and  _51
REMARK   22  A    between atoms: _51  and  _52
REMARK   23  A    between atoms: _55  and  _57
REMARK   24  A    between atoms: _57  and  _58
REMARK   25  A    between atoms: _60  and  _62
REMARK   26  A    between atoms: _62  and  _63
REMARK   27  A    between atoms: _62  and  _65
REMARK   28  A    between atoms: _65  and  _66
REMARK   29  A    between atoms: _66  and  _67
REMARK   30  A    between atoms: _72  and  _74
REMARK   31  A    between atoms: _74  and  _75
REMARK   32  A    between atoms: _78  and  _80
REMARK   33  A    between atoms: _80  and  _81
REMARK   34  A    between atoms: _80  and  _83
REMARK   35  A    between atoms: _83  and  _84
REMARK   36  A    between atoms: _87  and  _89
REMARK   37  A    between atoms: _89  and  _90
REMARK   38  A    between atoms: _89  and  _92
REMARK   39  A    between atoms: _92  and  _93
REMARK   40  A    between atoms: _96  and  _98
REMARK   41  A    between atoms: _98  and  _99
REMARK   42  A    between atoms: _98  and  _101
REMARK   43  A    between atoms: _101  and  _102
REMARK   44  A    between atoms: _108  and  _110
REMARK   45  A    between atoms: _110  and  _111
REMARK   46  A    between atoms: _110  and  _113
REMARK   47  A    between atoms: _113  and  _114
REMARK   48  A    between atoms: _117  and  _119
REMARK   49  A    between atoms: _119  and  _120
REMARK   50  A    between atoms: _119  and  _122
REMARK   51  A    between atoms: _122  and  _123
REMARK   52  A    between atoms: _126  and  _128
REMARK   53  A    between atoms: _128  and  _129
REMARK   54  A    between atoms: _128  and  _131
REMARK   55  A    between atoms: _131  and  _132
REMARK   56  A    between atoms: _138  and  _139
REMARK   57  A    between atoms: _144  and  _146
REMARK   58  A    between atoms: _146  and  _147
REMARK   59  A    between atoms: _146  and  _149
REMARK   60  A    between atoms: _149  and  _150
REMARK   61  A    between atoms: _150  and  _151
REMARK   62  A    between atoms: _151  and  _152
REMARK   63  A    between atoms: _161  and  _163
REMARK   64  A    between atoms: _163  and  _164
REMARK   65  A    between atoms: _163  and  _166
REMARK   66  A    between atoms: _166  and  _167
REMARK   67  A    between atoms: _170  and  _172
REMARK   68  A    between atoms: _172  and  _173
REMARK   69  A    between atoms: _172  and  _175
REMARK   70  A    between atoms: _175  and  _176
REMARK   71  A    between atoms: _182  and  _184
REMARK   72  A    between atoms: _184  and  _185
REMARK   73  A    between atoms: _184  and  _187
REMARK   74  A    between atoms: _190  and  _192
REMARK   75  A    between atoms: _192  and  _193
REMARK   76  A    between atoms: _192  and  _195
REMARK   77  A    between atoms: _195  and  _196
REMARK   78  A    between atoms: _196  and  _197
REMARK   79  A    between atoms: _199  and  _201
REMARK   80  A    between atoms: _201  and  _202
REMARK   81  A    between atoms: _201  and  _204
REMARK   82  A    between atoms: _204  and  _205
REMARK   83  A    between atoms: _208  and  _210
REMARK   84  A    between atoms: _210  and  _211
REMARK   85  A    between atoms: _210  and  _213
REMARK   86  A    between atoms: _216  and  _218
REMARK   87  A    between atoms: _218  and  _219
REMARK   88  A    between atoms: _218  and  _221
REMARK   89  A    between atoms: _221  and  _222
REMARK   90  A    between atoms: _222  and  _223
REMARK   91  A    between atoms: _226  and  _228
REMARK   92  A    between atoms: _228  and  _229
REMARK   93  A    between atoms: _228  and  _231
REMARK   94  A    between atoms: _234  and  _236
REMARK   95  A    between atoms: _236  and  _237
REMARK   96  A    between atoms: _236  and  _239
REMARK   97  A    between atoms: _239  and  _240
REMARK   98  A    between atoms: _243  and  _245
REMARK   99  A    between atoms: _245  and  _246
REMARK  100  A    between atoms: _245  and  _248
REMARK  101  A    between atoms: _250  and  _252
REMARK  102  A    between atoms: _252  and  _253
REMARK  103  A    between atoms: _252  and  _255
REMARK  104  A    between atoms: _255  and  _256
REMARK  105  A    between atoms: _260  and  _261
REMARK  106  A    between atoms: _266  and  _268
REMARK  107  A    between atoms: _268  and  _269
REMARK  108  A    between atoms: _268  and  _271
REMARK  109  A    between atoms: _271  and  _272
REMARK  110  A    between atoms: _272  and  _273
REMARK  111  A    between atoms: _273  and  _274
REMARK  112  A    between atoms: _274  and  _275
REMARK  113  A    between atoms: _279  and  _281
REMARK  114  A    between atoms: _281  and  _282
REMARK  115  A    between atoms: _281  and  _284
REMARK  116  A    between atoms: _284  and  _285
REMARK  117  A    between atoms: _288  and  _290
REMARK  118  A    between atoms: _290  and  _291
REMARK  119  A    between atoms: _290  and  _293
REMARK  120  A    between atoms: _293  and  _294
REMARK  121  A    between atoms: _299  and  _301
REMARK  122  A    between atoms: _301  and  _302
REMARK  123  A    between atoms: _305  and  _307
REMARK  124  A    between atoms: _307  and  _308
REMARK  125  A    between atoms: _307  and  _310
REMARK  126  A    between atoms: _310  and  _311
REMARK  127  A    between atoms: _316  and  _317
REMARK  128  A    between atoms: _319  and  _321
REMARK  129  A    between atoms: _321  and  _322
REMARK  130  A    between atoms: _321  and  _324
REMARK  131  A    between atoms: _324  and  _325
REMARK  132  A    between atoms: _328  and  _330
REMARK  133  A    between atoms: _330  and  _331
REMARK  134  A    between atoms: _334  and  _336
REMARK  135  A    between atoms: _336  and  _337
REMARK  136  A    between atoms: _336  and  _339
REMARK  137  A    between atoms: _339  and  _340
REMARK  138  A    between atoms: _340  and  _341
REMARK  139  A    between atoms: _341  and  _342
REMARK  140  A    between atoms: _351  and  _353
REMARK  141  A    between atoms: _353  and  _354
REMARK  142  A    between atoms: _353  and  _356
REMARK  143  A    between atoms: _356  and  _357
REMARK  144  A    between atoms: _362  and  _364
REMARK  145  A    between atoms: _364  and  _365
REMARK  146  A    between atoms: _364  and  _367
REMARK  147  A    between atoms: _367  and  _368
REMARK  148  A    between atoms: _374  and  _376
REMARK  149  A    between atoms: _376  and  _377
REMARK  150  A    between atoms: _376  and  _379
REMARK  151  A    between atoms: _379  and  _380
REMARK  152  A    between atoms: _384  and  _385
REMARK  153  A    between atoms: _390  and  _392
REMARK  154  A    between atoms: _392  and  _393
REMARK  155  A    between atoms: _392  and  _395
REMARK  156  A    between atoms: _395  and  _396
REMARK  157  A    between atoms: _399  and  _401
REMARK  158  A    between atoms: _401  and  _402
REMARK  159  A    between atoms: _401  and  _404
REMARK  160  A    between atoms: _407  and  _409
REMARK  161  A    between atoms: _409  and  _410
REMARK  162  A    between atoms: _409  and  _412
REMARK  163  A    between atoms: _412  and  _413
REMARK  164  A    between atoms: _418  and  _420
REMARK  165  A    between atoms: _420  and  _421
REMARK  166  A    between atoms: _420  and  _423
REMARK  167  A    between atoms: _423  and  _424
REMARK  168  A    between atoms: _427  and  _429
REMARK  169  A    between atoms: _429  and  _430
REMARK  170  A    between atoms: _429  and  _432
REMARK  171  A    between atoms: _432  and  _433
REMARK  172  A    between atoms: _435  and  _437
REMARK  173  A    between atoms: _437  and  _438
REMARK  174  A    between atoms: _437  and  _440
REMARK  175  A    between atoms: _440  and  _441
REMARK  176  A    between atoms: _447  and  _449
REMARK  177  A    between atoms: _449  and  _450
REMARK  178  A    between atoms: _449  and  _452
REMARK  179  A    between atoms: _452  and  _453
REMARK  180  A    between atoms: _458  and  _460
REMARK  181  A    between atoms: _460  and  _461
REMARK  182  A    between atoms: _460  and  _463
REMARK  183  A    between atoms: _463  and  _464
REMARK  184  A    between atoms: _467  and  _469
REMARK  185  A    between atoms: _469  and  _470
REMARK  186  A    between atoms: _472  and  _474
REMARK  187  A    between atoms: _474  and  _475
REMARK  188  A    between atoms: _474  and  _477
REMARK  189  A    between atoms: _477  and  _478
REMARK  190  A    between atoms: _478  and  _479
REMARK  191  A    between atoms: _484  and  _486
REMARK  192  A    between atoms: _486  and  _487
REMARK  193  A    between atoms: _490  and  _492
REMARK  194  A    between atoms: _492  and  _493
REMARK  195  A    between atoms: _492  and  _495
REMARK  196  A    between atoms: _495  and  _496
REMARK  197  A    between atoms: _499  and  _501
REMARK  198  A    between atoms: _501  and  _502
REMARK  199  A    between atoms: _505  and  _507
REMARK  200  A    between atoms: _507  and  _508
REMARK  201  A    between atoms: _507  and  _510
REMARK  202  A    between atoms: _510  and  _511
REMARK  203  A    between atoms: _516  and  _518
REMARK  204  A    between atoms: _518  and  _519
REMARK  205  A    between atoms: _518  and  _521
REMARK  206  A    between atoms: _521  and  _522
REMARK  207  A    between atoms: _527  and  _528
REMARK  208  A    between atoms: _530  and  _532
REMARK  209  A    between atoms: _532  and  _533
REMARK  210  A    between atoms: _532  and  _535
REMARK  211  A    between atoms: _535  and  _536
REMARK  212  A    between atoms: _539  and  _541
REMARK  213  A    between atoms: _541  and  _542
REMARK  214  A    between atoms: _541  and  _544
REMARK  215  A    between atoms: _544  and  _545
REMARK  216  A    between atoms: _547  and  _549
REMARK  217  A    between atoms: _549  and  _550
REMARK  218  A    between atoms: _549  and  _552
REMARK  219  A    between atoms: _552  and  _553
REMARK  220  A    between atoms: _559  and  _561
REMARK  221  A    between atoms: _561  and  _562
REMARK  222  A    between atoms: _561  and  _564
REMARK  223  A    between atoms: _564  and  _565
REMARK  224  A    between atoms: _565  and  _566
REMARK  225  A    between atoms: _569  and  _571
REMARK  226  A    between atoms: _571  and  _572
REMARK  227  A    between atoms: _571  and  _574
REMARK  228  A    between atoms: _574  and  _575
REMARK  229  A    between atoms: _575  and  _576
REMARK  230  A    between atoms: _576  and  _577
REMARK  231  A    between atoms: _577  and  _578
REMARK  232  A    between atoms: _582  and  _584
REMARK  233  A    between atoms: _584  and  _585
REMARK  234  A    between atoms: _584  and  _587
REMARK  235  A    between atoms: _587  and  _588
REMARK  236  A    between atoms: _590  and  _592
REMARK  237  A    between atoms: _592  and  _593
REMARK  238  A    between atoms: _592  and  _595
REMARK  239  A    between atoms: _595  and  _596
REMARK  240  A    between atoms: _596  and  _597
REMARK  241  A    between atoms: _597  and  _598
REMARK                            x       y       z     vdW  Elec       q    Type
REMARK                         _______ _______ _______ _____ _____    ______ ____
ROOT
ATOM      1  O   HOH     1       1.012  24.904  19.873  0.00  0.00    +0.000 OA
ENDROOT
TORSDOF 0
REMARK  Name = ../refined-set-2016/3wgg/3wgg_pocket.pdb
REMARK  241 active torsions:
REMARK  status: ('A' for Active; 'I' for Inactive)
REMARK    1  A    between atoms: _1  and  _3
REMARK    2  A    between atoms: _3  and  _4
REMARK    3  A    between atoms: _3  and  _6
REMARK    4  A    between atoms: _6  and  _7
REMARK    5  A    between atoms: _10  and  _12
REMARK    6  A    between atoms: _12  and  _13
REMARK    7  A    between atoms: _12  and  _15
REMARK    8  A    between atoms: _15  and  _16
REMARK    9  A    between atoms: _19  and  _21
REMARK   10  A    between atoms: _21  and  _22
REMARK   11  A    between atoms: _24  and  _26
REMARK   12  A    between atoms: _26  and  _27
REMARK   13  A    between atoms: _30  and  _32
REMARK   14  A    between atoms: _32  and  _33
REMARK   15  A    between atoms: _35  and  _37
REMARK   16  A    between atoms: _37  and  _38
REMARK   17  A    between atoms: _37  and  _40
REMARK   18  A    between atoms: _40  and  _41
REMARK   19  A    between atoms: _46  and  _48
REMARK   20  A    between atoms: _48  and  _49
REMARK   21  A    between atoms: _48  and  _51
REMARK   22  A    between atoms: _51  and  _52
REMARK   23  A    between atoms: _55  and  _57
REMARK   24  A    between atoms: _57  and  _58
REMARK   25  A    between atoms: _60  and  _62
REMARK   26  A    between atoms: _62  and  _63
REMARK   27  A    between atoms: _62  and  _65
REMARK   28  A    between atoms: _65  and  _66
REMARK   29  A    between atoms: _66  and  _67
REMARK   30  A    between atoms: _72  and  _74
REMARK   31  A    between atoms: _74  and  _75
REMARK   32  A    between atoms: _78  and  _80
REMARK   33  A    between atoms: _80  and  _81
REMARK   34  A    between atoms: _80  and  _83
REMARK   35  A    between atoms: _83  and  _84
REMARK   36  A    between atoms: _87  and  _89
REMARK   37  A    between atoms: _89  and  _90
REMARK   38  A    between atoms: _89  and  _92
REMARK   39  A    between atoms: _92  and  _93
REMARK   40  A    between atoms: _96  and  _98
REMARK   41  A    between atoms: _98  and  _99
REMARK   42  A    between atoms: _98  and  _101
REMARK   43  A    between atoms: _101  and  _102
REMARK   44  A    between atoms: _108  and  _110
REMARK   45  A    between atoms: _110  and  _111
REMARK   46  A    between atoms: _110  and  _113
REMARK   47  A    between atoms: _113  and  _114
REMARK   48  A    between atoms: _117  and  _119
REMARK   49  A    between atoms: _119  and  _120
REMARK   50  A    between atoms: _119  and  _122
REMARK   51  A    between atoms: _122  and  _123
REMARK   52  A    between atoms: _126  and  _128
REMARK   53  A    between atoms: _128  and  _129
REMARK   54  A    between atoms: _128  and  _131
REMARK   55  A    between atoms: _131  and  _132
REMARK   56  A    between atoms: _138  and  _139
REMARK   57  A    between atoms: _144  and  _146
REMARK   58  A    between atoms: _146  and  _147
REMARK   59  A    between atoms: _146  and  _149
REMARK   60  A    between atoms: _149  and  _150
REMARK   61  A    between atoms: _150  and  _151
REMARK   62  A    between atoms: _151  and  _152
REMARK   63  A    between atoms: _161  and  _163
REMARK   64  A    between atoms: _163  and  _164
REMARK   65  A    between atoms: _163  and  _166
REMARK   66  A    between atoms: _166  and  _167
REMARK   67  A    between atoms: _170  and  _172
REMARK   68  A    between atoms: _172  and  _173
REMARK   69  A    between atoms: _172  and  _175
REMARK   70  A    between atoms: _175  and  _176
REMARK   71  A    between atoms: _182  and  _184
REMARK   72  A    between atoms: _184  and  _185
REMARK   73  A    between atoms: _184  and  _187
REMARK   74  A    between atoms: _190  and  _192
REMARK   75  A    between atoms: _192  and  _193
REMARK   76  A    between atoms: _192  and  _195
REMARK   77  A    between atoms: _195  and  _196
REMARK   78  A    between atoms: _196  and  _197
REMARK   79  A    between atoms: _199  and  _201
REMARK   80  A    between atoms: _201  and  _202
REMARK   81  A    between atoms: _201  and  _204
REMARK   82  A    between atoms: _204  and  _205
REMARK   83  A    between atoms: _208  and  _210
REMARK   84  A    between atoms: _210  and  _211
REMARK   85  A    between atoms: _210  and  _213
REMARK   86  A    between atoms: _216  and  _218
REMARK   87  A    between atoms: _218  and  _219
REMARK   88  A    between atoms: _218  and  _221
REMARK   89  A    between atoms: _221  and  _222
REMARK   90  A    between atoms: _222  and  _223
REMARK   91  A    between atoms: _226  and  _228
REMARK   92  A    between atoms: _228  and  _229
REMARK   93  A    between atoms: _228  and  _231
REMARK   94  A    between atoms: _234  and  _236
REMARK   95  A    between atoms: _236  and  _237
REMARK   96  A    between atoms: _236  and  _239
REMARK   97  A    between atoms: _239  and  _240
REMARK   98  A    between atoms: _243  and  _245
REMARK   99  A    between atoms: _245  and  _246
REMARK  100  A    between atoms: _245  and  _248
REMARK  101  A    between atoms: _250  and  _252
REMARK  102  A    between atoms: _252  and  _253
REMARK  103  A    between atoms: _252  and  _255
REMARK  104  A    between atoms: _255  and  _256
REMARK  105  A    between atoms: _260  and  _261
REMARK  106  A    between atoms: _266  and  _268
REMARK  107  A    between atoms: _268  and  _269
REMARK  108  A    between atoms: _268  and  _271
REMARK  109  A    between atoms: _271  and  _272
REMARK  110  A    between atoms: _272  and  _273
REMARK  111  A    between atoms: _273  and  _274
REMARK  112  A    between atoms: _274  and  _275
REMARK  113  A    between atoms: _279  and  _281
REMARK  114  A    between atoms: _281  and  _282
REMARK  115  A    between atoms: _281  and  _284
REMARK  116  A    between atoms: _284  and  _285
REMARK  117  A    between atoms: _288  and  _290
REMARK  118  A    between atoms: _290  and  _291
REMARK  119  A    between atoms: _290  and  _293
REMARK  120  A    between atoms: _293  and  _294
REMARK  121  A    between atoms: _299  and  _301
REMARK  122  A    between atoms: _301  and  _302
REMARK  123  A    between atoms: _305  and  _307
REMARK  124  A    between atoms: _307  and  _308
REMARK  125  A    between atoms: _307  and  _310
REMARK  126  A    between atoms: _310  and  _311
REMARK  127  A    between atoms: _316  and  _317
REMARK  128  A    between atoms: _319  and  _321
REMARK  129  A    between atoms: _321  and  _322
REMARK  130  A    between atoms: _321  and  _324
REMARK  131  A    between atoms: _324  and  _325
REMARK  132  A    between atoms: _328  and  _330
REMARK  133  A    between atoms: _330  and  _331
REMARK  134  A    between atoms: _334  and  _336
REMARK  135  A    between atoms: _336  and  _337
REMARK  136  A    between atoms: _336  and  _339
REMARK  137  A    between atoms: _339  and  _340
REMARK  138  A    between atoms: _340  and  _341
REMARK  139  A    between atoms: _341  and  _342
REMARK  140  A    between atoms: _351  and  _353
REMARK  141  A    between atoms: _353  and  _354
REMARK  142  A    between atoms: _353  and  _356
REMARK  143  A    between atoms: _356  and  _357
REMARK  144  A    between atoms: _362  and  _364
REMARK  145  A    between atoms: _364  and  _365
REMARK  146  A    between atoms: _364  and  _367
REMARK  147  A    between atoms: _367  and  _368
REMARK  148  A    between atoms: _374  and  _376
REMARK  149  A    between atoms: _376  and  _377
REMARK  150  A    between atoms: _376  and  _379
REMARK  151  A    between atoms: _379  and  _380
REMARK  152  A    between atoms: _384  and  _385
REMARK  153  A    between atoms: _390  and  _392
REMARK  154  A    between atoms: _392  and  _393
REMARK  155  A    between atoms: _392  and  _395
REMARK  156  A    between atoms: _395  and  _396
REMARK  157  A    between atoms: _399  and  _401
REMARK  158  A    between atoms: _401  and  _402
REMARK  159  A    between atoms: _401  and  _404
REMARK  160  A    between atoms: _407  and  _409
REMARK  161  A    between atoms: _409  and  _410
REMARK  162  A    between atoms: _409  and  _412
REMARK  163  A    between atoms: _412  and  _413
REMARK  164  A    between atoms: _418  and  _420
REMARK  165  A    between atoms: _420  and  _421
REMARK  166  A    between atoms: _420  and  _423
REMARK  167  A    between atoms: _423  and  _424
REMARK  168  A    between atoms: _427  and  _429
REMARK  169  A    between atoms: _429  and  _430
REMARK  170  A    between atoms: _429  and  _432
REMARK  171  A    between atoms: _432  and  _433
REMARK  172  A    between atoms: _435  and  _437
REMARK  173  A    between atoms: _437  and  _438
REMARK  174  A    between atoms: _437  and  _440
REMARK  175  A    between atoms: _440  and  _441
REMARK  176  A    between atoms: _447  and  _449
REMARK  177  A    between atoms: _449  and  _450
REMARK  178  A    between atoms: _449  and  _452
REMARK  179  A    between atoms: _452  and  _453
REMARK  180  A    between atoms: _458  and  _460
REMARK  181  A    between atoms: _460  and  _461
REMARK  182  A    between atoms: _460  and  _463
REMARK  183  A    between atoms: _463  and  _464
REMARK  184  A    between atoms: _467  and  _469
REMARK  185  A    between atoms: _469  and  _470
REMARK  186  A    between atoms: _472  and  _474
REMARK  187  A    between atoms: _474  and  _475
REMARK  188  A    between atoms: _474  and  _477
REMARK  189  A    between atoms: _477  and  _478
REMARK  190  A    between atoms: _478  and  _479
REMARK  191  A    between atoms: _484  and  _486
REMARK  192  A    between atoms: _486  and  _487
REMARK  193  A    between atoms: _490  and  _492
REMARK  194  A    between atoms: _492  and  _493
REMARK  195  A    between atoms: _492  and  _495
REMARK  196  A    between atoms: _495  and  _496
REMARK  197  A    between atoms: _499  and  _501
REMARK  198  A    between atoms: _501  and  _502
REMARK  199  A    between atoms: _505  and  _507
REMARK  200  A    between atoms: _507  and  _508
REMARK  201  A    between atoms: _507  and  _510
REMARK  202  A    between atoms: _510  and  _511
REMARK  203  A    between atoms: _516  and  _518
REMARK  204  A    between atoms: _518  and  _519
REMARK  205  A    between atoms: _518  and  _521
REMARK  206  A    between atoms: _521  and  _522
REMARK  207  A    between atoms: _527  and  _528
REMARK  208  A    between atoms: _530  and  _532
REMARK  209  A    between atoms: _532  and  _533
REMARK  210  A    between atoms: _532  and  _535
REMARK  211  A    between atoms: _535  and  _536
REMARK  212  A    between atoms: _539  and  _541
REMARK  213  A    between atoms: _541  and  _542
REMARK  214  A    between atoms: _541  and  _544
REMARK  215  A    between atoms: _544  and  _545
REMARK  216  A    between atoms: _547  and  _549
REMARK  217  A    between atoms: _549  and  _550
REMARK  218  A    between atoms: _549  and  _552
REMARK  219  A    between atoms: _552  and  _553
REMARK  220  A    between atoms: _559  and  _561
REMARK  221  A    between atoms: _561  and  _562
REMARK  222  A    between atoms: _561  and  _564
REMARK  223  A    between atoms: _564  and  _565
REMARK  224  A    between atoms: _565  and  _566
REMARK  225  A    between atoms: _569  and  _571
REMARK  226  A    between atoms: _571  and  _572
REMARK  227  A    between atoms: _571  and  _574
REMARK  228  A    between atoms: _574  and  _575
REMARK  229  A    between atoms: _575  and  _576
REMARK  230  A    between atoms: _576  and  _577
REMARK  231  A    between atoms: _577  and  _578
REMARK  232  A    between atoms: _582  and  _584
REMARK  233  A    between atoms: _584  and  _585
REMARK  234  A    between atoms: _584  and  _587
REMARK  235  A    between atoms: _587  and  _588
REMARK  236  A    between atoms: _590  and  _592
REMARK  237  A    between atoms: _592  and  _593
REMARK  238  A    between atoms: _592  and  _595
REMARK  239  A    between atoms: _595  and  _596
REMARK  240  A    between atoms: _596  and  _597
REMARK  241  A    between atoms: _597  and  _598
REMARK                            x       y       z     vdW  Elec       q    Type
REMARK                         _______ _______ _______ _____ _____    ______ ____
ROOT
ATOM      1  O   HOH     1       7.617  29.990  14.490  0.00  0.00    +0.000 OA
ENDROOT
TORSDOF 0
REMARK  Name = ../refined-set-2016/3wgg/3wgg_pocket.pdb
REMARK  241 active torsions:
REMARK  status: ('A' for Active; 'I' for Inactive)
REMARK    1  A    between atoms: _1  and  _3
REMARK    2  A    between atoms: _3  and  _4
REMARK    3  A    between atoms: _3  and  _6
REMARK    4  A    between atoms: _6  and  _7
REMARK    5  A    between atoms: _10  and  _12
REMARK    6  A    between atoms: _12  and  _13
REMARK    7  A    between atoms: _12  and  _15
REMARK    8  A    between atoms: _15  and  _16
REMARK    9  A    between atoms: _19  and  _21
REMARK   10  A    between atoms: _21  and  _22
REMARK   11  A    between atoms: _24  and  _26
REMARK   12  A    between atoms: _26  and  _27
REMARK   13  A    between atoms: _30  and  _32
REMARK   14  A    between atoms: _32  and  _33
REMARK   15  A    between atoms: _35  and  _37
REMARK   16  A    between atoms: _37  and  _38
REMARK   17  A    between atoms: _37  and  _40
REMARK   18  A    between atoms: _40  and  _41
REMARK   19  A    between atoms: _46  and  _48
REMARK   20  A    between atoms: _48  and  _49
REMARK   21  A    between atoms: _48  and  _51
REMARK   22  A    between atoms: _51  and  _52
REMARK   23  A    between atoms: _55  and  _57
REMARK   24  A    between atoms: _57  and  _58
REMARK   25  A    between atoms: _60  and  _62
REMARK   26  A    between atoms: _62  and  _63
REMARK   27  A    between atoms: _62  and  _65
REMARK   28  A    between atoms: _65  and  _66
REMARK   29  A    between atoms: _66  and  _67
REMARK   30  A    between atoms: _72  and  _74
REMARK   31  A    between atoms: _74  and  _75
REMARK   32  A    between atoms: _78  and  _80
REMARK   33  A    between atoms: _80  and  _81
REMARK   34  A    between atoms: _80  and  _83
REMARK   35  A    between atoms: _83  and  _84
REMARK   36  A    between atoms: _87  and  _89
REMARK   37  A    between atoms: _89  and  _90
REMARK   38  A    between atoms: _89  and  _92
REMARK   39  A    between atoms: _92  and  _93
REMARK   40  A    between atoms: _96  and  _98
REMARK   41  A    between atoms: _98  and  _99
REMARK   42  A    between atoms: _98  and  _101
REMARK   43  A    between atoms: _101  and  _102
REMARK   44  A    between atoms: _108  and  _110
REMARK   45  A    between atoms: _110  and  _111
REMARK   46  A    between atoms: _110  and  _113
REMARK   47  A    between atoms: _113  and  _114
REMARK   48  A    between atoms: _117  and  _119
REMARK   49  A    between atoms: _119  and  _120
REMARK   50  A    between atoms: _119  and  _122
REMARK   51  A    between atoms: _122  and  _123
REMARK   52  A    between atoms: _126  and  _128
REMARK   53  A    between atoms: _128  and  _129
REMARK   54  A    between atoms: _128  and  _131
REMARK   55  A    between atoms: _131  and  _132
REMARK   56  A    between atoms: _138  and  _139
REMARK   57  A    between atoms: _144  and  _146
REMARK   58  A    between atoms: _146  and  _147
REMARK   59  A    between atoms: _146  and  _149
REMARK   60  A    between atoms: _149  and  _150
REMARK   61  A    between atoms: _150  and  _151
REMARK   62  A    between atoms: _151  and  _152
REMARK   63  A    between atoms: _161  and  _163
REMARK   64  A    between atoms: _163  and  _164
REMARK   65  A    between atoms: _163  and  _166
REMARK   66  A    between atoms: _166  and  _167
REMARK   67  A    between atoms: _170  and  _172
REMARK   68  A    between atoms: _172  and  _173
REMARK   69  A    between atoms: _172  and  _175
REMARK   70  A    between atoms: _175  and  _176
REMARK   71  A    between atoms: _182  and  _184
REMARK   72  A    between atoms: _184  and  _185
REMARK   73  A    between atoms: _184  and  _187
REMARK   74  A    between atoms: _190  and  _192
REMARK   75  A    between atoms: _192  and  _193
REMARK   76  A    between atoms: _192  and  _195
REMARK   77  A    between atoms: _195  and  _196
REMARK   78  A    between atoms: _196  and  _197
REMARK   79  A    between atoms: _199  and  _201
REMARK   80  A    between atoms: _201  and  _202
REMARK   81  A    between atoms: _201  and  _204
REMARK   82  A    between atoms: _204  and  _205
REMARK   83  A    between atoms: _208  and  _210
REMARK   84  A    between atoms: _210  and  _211
REMARK   85  A    between atoms: _210  and  _213
REMARK   86  A    between atoms: _216  and  _218
REMARK   87  A    between atoms: _218  and  _219
REMARK   88  A    between atoms: _218  and  _221
REMARK   89  A    between atoms: _221  and  _222
REMARK   90  A    between atoms: _222  and  _223
REMARK   91  A    between atoms: _226  and  _228
REMARK   92  A    between atoms: _228  and  _229
REMARK   93  A    between atoms: _228  and  _231
REMARK   94  A    between atoms: _234  and  _236
REMARK   95  A    between atoms: _236  and  _237
REMARK   96  A    between atoms: _236  and  _239
REMARK   97  A    between atoms: _239  and  _240
REMARK   98  A    between atoms: _243  and  _245
REMARK   99  A    between atoms: _245  and  _246
REMARK  100  A    between atoms: _245  and  _248
REMARK  101  A    between atoms: _250  and  _252
REMARK  102  A    between atoms: _252  and  _253
REMARK  103  A    between atoms: _252  and  _255
REMARK  104  A    between atoms: _255  and  _256
REMARK  105  A    between atoms: _260  and  _261
REMARK  106  A    between atoms: _266  and  _268
REMARK  107  A    between atoms: _268  and  _269
REMARK  108  A    between atoms: _268  and  _271
REMARK  109  A    between atoms: _271  and  _272
REMARK  110  A    between atoms: _272  and  _273
REMARK  111  A    between atoms: _273  and  _274
REMARK  112  A    between atoms: _274  and  _275
REMARK  113  A    between atoms: _279  and  _281
REMARK  114  A    between atoms: _281  and  _282
REMARK  115  A    between atoms: _281  and  _284
REMARK  116  A    between atoms: _284  and  _285
REMARK  117  A    between atoms: _288  and  _290
REMARK  118  A    between atoms: _290  and  _291
REMARK  119  A    between atoms: _290  and  _293
REMARK  120  A    between atoms: _293  and  _294
REMARK  121  A    between atoms: _299  and  _301
REMARK  122  A    between atoms: _301  and  _302
REMARK  123  A    between atoms: _305  and  _307
REMARK  124  A    between atoms: _307  and  _308
REMARK  125  A    between atoms: _307  and  _310
REMARK  126  A    between atoms: _310  and  _311
REMARK  127  A    between atoms: _316  and  _317
REMARK  128  A    between atoms: _319  and  _321
REMARK  129  A    between atoms: _321  and  _322
REMARK  130  A    between atoms: _321  and  _324
REMARK  131  A    between atoms: _324  and  _325
REMARK  132  A    between atoms: _328  and  _330
REMARK  133  A    between atoms: _330  and  _331
REMARK  134  A    between atoms: _334  and  _336
REMARK  135  A    between atoms: _336  and  _337
REMARK  136  A    between atoms: _336  and  _339
REMARK  137  A    between atoms: _339  and  _340
REMARK  138  A    between atoms: _340  and  _341
REMARK  139  A    between atoms: _341  and  _342
REMARK  140  A    between atoms: _351  and  _353
REMARK  141  A    between atoms: _353  and  _354
REMARK  142  A    between atoms: _353  and  _356
REMARK  143  A    between atoms: _356  and  _357
REMARK  144  A    between atoms: _362  and  _364
REMARK  145  A    between atoms: _364  and  _365
REMARK  146  A    between atoms: _364  and  _367
REMARK  147  A    between atoms: _367  and  _368
REMARK  148  A    between atoms: _374  and  _376
REMARK  149  A    between atoms: _376  and  _377
REMARK  150  A    between atoms: _376  and  _379
REMARK  151  A    between atoms: _379  and  _380
REMARK  152  A    between atoms: _384  and  _385
REMARK  153  A    between atoms: _390  and  _392
REMARK  154  A    between atoms: _392  and  _393
REMARK  155  A    between atoms: _392  and  _395
REMARK  156  A    between atoms: _395  and  _396
REMARK  157  A    between atoms: _399  and  _401
REMARK  158  A    between atoms: _401  and  _402
REMARK  159  A    between atoms: _401  and  _404
REMARK  160  A    between atoms: _407  and  _409
REMARK  161  A    between atoms: _409  and  _410
REMARK  162  A    between atoms: _409  and  _412
REMARK  163  A    between atoms: _412  and  _413
REMARK  164  A    between atoms: _418  and  _420
REMARK  165  A    between atoms: _420  and  _421
REMARK  166  A    between atoms: _420  and  _423
REMARK  167  A    between atoms: _423  and  _424
REMARK  168  A    between atoms: _427  and  _429
REMARK  169  A    between atoms: _429  and  _430
REMARK  170  A    between atoms: _429  and  _432
REMARK  171  A    between atoms: _432  and  _433
REMARK  172  A    between atoms: _435  and  _437
REMARK  173  A    between atoms: _437  and  _438
REMARK  174  A    between atoms: _437  and  _440
REMARK  175  A    between atoms: _440  and  _441
REMARK  176  A    between atoms: _447  and  _449
REMARK  177  A    between atoms: _449  and  _450
REMARK  178  A    between atoms: _449  and  _452
REMARK  179  A    between atoms: _452  and  _453
REMARK  180  A    between atoms: _458  and  _460
REMARK  181  A    between atoms: _460  and  _461
REMARK  182  A    between atoms: _460  and  _463
REMARK  183  A    between atoms: _463  and  _464
REMARK  184  A    between atoms: _467  and  _469
REMARK  185  A    between atoms: _469  and  _470
REMARK  186  A    between atoms: _472  and  _474
REMARK  187  A    between atoms: _474  and  _475
REMARK  188  A    between atoms: _474  and  _477
REMARK  189  A    between atoms: _477  and  _478
REMARK  190  A    between atoms: _478  and  _479
REMARK  191  A    between atoms: _484  and  _486
REMARK  192  A    between atoms: _486  and  _487
REMARK  193  A    between atoms: _490  and  _492
REMARK  194  A    between atoms: _492  and  _493
REMARK  195  A    between atoms: _492  and  _495
REMARK  196  A    between atoms: _495  and  _496
REMARK  197  A    between atoms: _499  and  _501
REMARK  198  A    between atoms: _501  and  _502
REMARK  199  A    between atoms: _505  and  _507
REMARK  200  A    between atoms: _507  and  _508
REMARK  201  A    between atoms: _507  and  _510
REMARK  202  A    between atoms: _510  and  _511
REMARK  203  A    between atoms: _516  and  _518
REMARK  204  A    between atoms: _518  and  _519
REMARK  205  A    between atoms: _518  and  _521
REMARK  206  A    between atoms: _521  and  _522
REMARK  207  A    between atoms: _527  and  _528
REMARK  208  A    between atoms: _530  and  _532
REMARK  209  A    between atoms: _532  and  _533
REMARK  210  A    between atoms: _532  and  _535
REMARK  211  A    between atoms: _535  and  _536
REMARK  212  A    between atoms: _539  and  _541
REMARK  213  A    between atoms: _541  and  _542
REMARK  214  A    between atoms: _541  and  _544
REMARK  215  A    between atoms: _544  and  _545
REMARK  216  A    between atoms: _547  and  _549
REMARK  217  A    between atoms: _549  and  _550
REMARK  218  A    between atoms: _549  and  _552
REMARK  219  A    between atoms: _552  and  _553
REMARK  220  A    between atoms: _559  and  _561
REMARK  221  A    between atoms: _561  and  _562
REMARK  222  A    between atoms: _561  and  _564
REMARK  223  A    between atoms: _564  and  _565
REMARK  224  A    between atoms: _565  and  _566
REMARK  225  A    between atoms: _569  and  _571
REMARK  226  A    between atoms: _571  and  _572
REMARK  227  A    between atoms: _571  and  _574
REMARK  228  A    between atoms: _574  and  _575
REMARK  229  A    between atoms: _575  and  _576
REMARK  230  A    between atoms: _576  and  _577
REMARK  231  A    between atoms: _577  and  _578
REMARK  232  A    between atoms: _582  and  _584
REMARK  233  A    between atoms: _584  and  _585
REMARK  234  A    between atoms: _584  and  _587
REMARK  235  A    between atoms: _587  and  _588
REMARK  236  A    between atoms: _590  and  _592
REMARK  237  A    between atoms: _592  and  _593
REMARK  238  A    between atoms: _592  and  _595
REMARK  239  A    between atoms: _595  and  _596
REMARK  240  A    between atoms: _596  and  _597
REMARK  241  A    between atoms: _597  and  _598
REMARK                            x       y       z     vdW  Elec       q    Type
REMARK                         _______ _______ _______ _____ _____    ______ ____
ROOT
ATOM      1  O   HOH     1       3.611  26.125  17.234  0.00  0.00    +0.000 OA
ENDROOT
TORSDOF 0
REMARK  Name = ../refined-set-2016/3wgg/3wgg_pocket.pdb
REMARK  241 active torsions:
REMARK  status: ('A' for Active; 'I' for Inactive)
REMARK    1  A    between atoms: _1  and  _3
REMARK    2  A    between atoms: _3  and  _4
REMARK    3  A    between atoms: _3  and  _6
REMARK    4  A    between atoms: _6  and  _7
REMARK    5  A    between atoms: _10  and  _12
REMARK    6  A    between atoms: _12  and  _13
REMARK    7  A    between atoms: _12  and  _15
REMARK    8  A    between atoms: _15  and  _16
REMARK    9  A    between atoms: _19  and  _21
REMARK   10  A    between atoms: _21  and  _22
REMARK   11  A    between atoms: _24  and  _26
REMARK   12  A    between atoms: _26  and  _27
REMARK   13  A    between atoms: _30  and  _32
REMARK   14  A    between atoms: _32  and  _33
REMARK   15  A    between atoms: _35  and  _37
REMARK   16  A    between atoms: _37  and  _38
REMARK   17  A    between atoms: _37  and  _40
REMARK   18  A    between atoms: _40  and  _41
REMARK   19  A    between atoms: _46  and  _48
REMARK   20  A    between atoms: _48  and  _49
REMARK   21  A    between atoms: _48  and  _51
REMARK   22  A    between atoms: _51  and  _52
REMARK   23  A    between atoms: _55  and  _57
REMARK   24  A    between atoms: _57  and  _58
REMARK   25  A    between atoms: _60  and  _62
REMARK   26  A    between atoms: _62  and  _63
REMARK   27  A    between atoms: _62  and  _65
REMARK   28  A    between atoms: _65  and  _66
REMARK   29  A    between atoms: _66  and  _67
REMARK   30  A    between atoms: _72  and  _74
REMARK   31  A    between atoms: _74  and  _75
REMARK   32  A    between atoms: _78  and  _80
REMARK   33  A    between atoms: _80  and  _81
REMARK   34  A    between atoms: _80  and  _83
REMARK   35  A    between atoms: _83  and  _84
REMARK   36  A    between atoms: _87  and  _89
REMARK   37  A    between atoms: _89  and  _90
REMARK   38  A    between atoms: _89  and  _92
REMARK   39  A    between atoms: _92  and  _93
REMARK   40  A    between atoms: _96  and  _98
REMARK   41  A    between atoms: _98  and  _99
REMARK   42  A    between atoms: _98  and  _101
REMARK   43  A    between atoms: _101  and  _102
REMARK   44  A    between atoms: _108  and  _110
REMARK   45  A    between atoms: _110  and  _111
REMARK   46  A    between atoms: _110  and  _113
REMARK   47  A    between atoms: _113  and  _114
REMARK   48  A    between atoms: _117  and  _119
REMARK   49  A    between atoms: _119  and  _120
REMARK   50  A    between atoms: _119  and  _122
REMARK   51  A    between atoms: _122  and  _123
REMARK   52  A    between atoms: _126  and  _128
REMARK   53  A    between atoms: _128  and  _129
REMARK   54  A    between atoms: _128  and  _131
REMARK   55  A    between atoms: _131  and  _132
REMARK   56  A    between atoms: _138  and  _139
REMARK   57  A    between atoms: _144  and  _146
REMARK   58  A    between atoms: _146  and  _147
REMARK   59  A    between atoms: _146  and  _149
REMARK   60  A    between atoms: _149  and  _150
REMARK   61  A    between atoms: _150  and  _151
REMARK   62  A    between atoms: _151  and  _152
REMARK   63  A    between atoms: _161  and  _163
REMARK   64  A    between atoms: _163  and  _164
REMARK   65  A    between atoms: _163  and  _166
REMARK   66  A    between atoms: _166  and  _167
REMARK   67  A    between atoms: _170  and  _172
REMARK   68  A    between atoms: _172  and  _173
REMARK   69  A    between atoms: _172  and  _175
REMARK   70  A    between atoms: _175  and  _176
REMARK   71  A    between atoms: _182  and  _184
REMARK   72  A    between atoms: _184  and  _185
REMARK   73  A    between atoms: _184  and  _187
REMARK   74  A    between atoms: _190  and  _192
REMARK   75  A    between atoms: _192  and  _193
REMARK   76  A    between atoms: _192  and  _195
REMARK   77  A    between atoms: _195  and  _196
REMARK   78  A    between atoms: _196  and  _197
REMARK   79  A    between atoms: _199  and  _201
REMARK   80  A    between atoms: _201  and  _202
REMARK   81  A    between atoms: _201  and  _204
REMARK   82  A    between atoms: _204  and  _205
REMARK   83  A    between atoms: _208  and  _210
REMARK   84  A    between atoms: _210  and  _211
REMARK   85  A    between atoms: _210  and  _213
REMARK   86  A    between atoms: _216  and  _218
REMARK   87  A    between atoms: _218  and  _219
REMARK   88  A    between atoms: _218  and  _221
REMARK   89  A    between atoms: _221  and  _222
REMARK   90  A    between atoms: _222  and  _223
REMARK   91  A    between atoms: _226  and  _228
REMARK   92  A    between atoms: _228  and  _229
REMARK   93  A    between atoms: _228  and  _231
REMARK   94  A    between atoms: _234  and  _236
REMARK   95  A    between atoms: _236  and  _237
REMARK   96  A    between atoms: _236  and  _239
REMARK   97  A    between atoms: _239  and  _240
REMARK   98  A    between atoms: _243  and  _245
REMARK   99  A    between atoms: _245  and  _246
REMARK  100  A    between atoms: _245  and  _248
REMARK  101  A    between atoms: _250  and  _252
REMARK  102  A    between atoms: _252  and  _253
REMARK  103  A    between atoms: _252  and  _255
REMARK  104  A    between atoms: _255  and  _256
REMARK  105  A    between atoms: _260  and  _261
REMARK  106  A    between atoms: _266  and  _268
REMARK  107  A    between atoms: _268  and  _269
REMARK  108  A    between atoms: _268  and  _271
REMARK  109  A    between atoms: _271  and  _272
REMARK  110  A    between atoms: _272  and  _273
REMARK  111  A    between atoms: _273  and  _274
REMARK  112  A    between atoms: _274  and  _275
REMARK  113  A    between atoms: _279  and  _281
REMARK  114  A    between atoms: _281  and  _282
REMARK  115  A    between atoms: _281  and  _284
REMARK  116  A    between atoms: _284  and  _285
REMARK  117  A    between atoms: _288  and  _290
REMARK  118  A    between atoms: _290  and  _291
REMARK  119  A    between atoms: _290  and  _293
REMARK  120  A    between atoms: _293  and  _294
REMARK  121  A    between atoms: _299  and  _301
REMARK  122  A    between atoms: _301  and  _302
REMARK  123  A    between atoms: _305  and  _307
REMARK  124  A    between atoms: _307  and  _308
REMARK  125  A    between atoms: _307  and  _310
REMARK  126  A    between atoms: _310  and  _311
REMARK  127  A    between atoms: _316  and  _317
REMARK  128  A    between atoms: _319  and  _321
REMARK  129  A    between atoms: _321  and  _322
REMARK  130  A    between atoms: _321  and  _324
REMARK  131  A    between atoms: _324  and  _325
REMARK  132  A    between atoms: _328  and  _330
REMARK  133  A    between atoms: _330  and  _331
REMARK  134  A    between atoms: _334  and  _336
REMARK  135  A    between atoms: _336  and  _337
REMARK  136  A    between atoms: _336  and  _339
REMARK  137  A    between atoms: _339  and  _340
REMARK  138  A    between atoms: _340  and  _341
REMARK  139  A    between atoms: _341  and  _342
REMARK  140  A    between atoms: _351  and  _353
REMARK  141  A    between atoms: _353  and  _354
REMARK  142  A    between atoms: _353  and  _356
REMARK  143  A    between atoms: _356  and  _357
REMARK  144  A    between atoms: _362  and  _364
REMARK  145  A    between atoms: _364  and  _365
REMARK  146  A    between atoms: _364  and  _367
REMARK  147  A    between atoms: _367  and  _368
REMARK  148  A    between atoms: _374  and  _376
REMARK  149  A    between atoms: _376  and  _377
REMARK  150  A    between atoms: _376  and  _379
REMARK  151  A    between atoms: _379  and  _380
REMARK  152  A    between atoms: _384  and  _385
REMARK  153  A    between atoms: _390  and  _392
REMARK  154  A    between atoms: _392  and  _393
REMARK  155  A    between atoms: _392  and  _395
REMARK  156  A    between atoms: _395  and  _396
REMARK  157  A    between atoms: _399  and  _401
REMARK  158  A    between atoms: _401  and  _402
REMARK  159  A    between atoms: _401  and  _404
REMARK  160  A    between atoms: _407  and  _409
REMARK  161  A    between atoms: _409  and  _410
REMARK  162  A    between atoms: _409  and  _412
REMARK  163  A    between atoms: _412  and  _413
REMARK  164  A    between atoms: _418  and  _420
REMARK  165  A    between atoms: _420  and  _421
REMARK  166  A    between atoms: _420  and  _423
REMARK  167  A    between atoms: _423  and  _424
REMARK  168  A    between atoms: _427  and  _429
REMARK  169  A    between atoms: _429  and  _430
REMARK  170  A    between atoms: _429  and  _432
REMARK  171  A    between atoms: _432  and  _433
REMARK  172  A    between atoms: _435  and  _437
REMARK  173  A    between atoms: _437  and  _438
REMARK  174  A    between atoms: _437  and  _440
REMARK  175  A    between atoms: _440  and  _441
REMARK  176  A    between atoms: _447  and  _449
REMARK  177  A    between atoms: _449  and  _450
REMARK  178  A    between atoms: _449  and  _452
REMARK  179  A    between atoms: _452  and  _453
REMARK  180  A    between atoms: _458  and  _460
REMARK  181  A    between atoms: _460  and  _461
REMARK  182  A    between atoms: _460  and  _463
REMARK  183  A    between atoms: _463  and  _464
REMARK  184  A    between atoms: _467  and  _469
REMARK  185  A    between atoms: _469  and  _470
REMARK  186  A    between atoms: _472  and  _474
REMARK  187  A    between atoms: _474  and  _475
REMARK  188  A    between atoms: _474  and  _477
REMARK  189  A    between atoms: _477  and  _478
REMARK  190  A    between atoms: _478  and  _479
REMARK  191  A    between atoms: _484  and  _486
REMARK  192  A    between atoms: _486  and  _487
REMARK  193  A    between atoms: _490  and  _492
REMARK  194  A    between atoms: _492  and  _493
REMARK  195  A    between atoms: _492  and  _495
REMARK  196  A    between atoms: _495  and  _496
REMARK  197  A    between atoms: _499  and  _501
REMARK  198  A    between atoms: _501  and  _502
REMARK  199  A    between atoms: _505  and  _507
REMARK  200  A    between atoms: _507  and  _508
REMARK  201  A    between atoms: _507  and  _510
REMARK  202  A    between atoms: _510  and  _511
REMARK  203  A    between atoms: _516  and  _518
REMARK  204  A    between atoms: _518  and  _519
REMARK  205  A    between atoms: _518  and  _521
REMARK  206  A    between atoms: _521  and  _522
REMARK  207  A    between atoms: _527  and  _528
REMARK  208  A    between atoms: _530  and  _532
REMARK  209  A    between atoms: _532  and  _533
REMARK  210  A    between atoms: _532  and  _535
REMARK  211  A    between atoms: _535  and  _536
REMARK  212  A    between atoms: _539  and  _541
REMARK  213  A    between atoms: _541  and  _542
REMARK  214  A    between atoms: _541  and  _544
REMARK  215  A    between atoms: _544  and  _545
REMARK  216  A    between atoms: _547  and  _549
REMARK  217  A    between atoms: _549  and  _550
REMARK  218  A    between atoms: _549  and  _552
REMARK  219  A    between atoms: _552  and  _553
REMARK  220  A    between atoms: _559  and  _561
REMARK  221  A    between atoms: _561  and  _562
REMARK  222  A    between atoms: _561  and  _564
REMARK  223  A    between atoms: _564  and  _565
REMARK  224  A    between atoms: _565  and  _566
REMARK  225  A    between atoms: _569  and  _571
REMARK  226  A    between atoms: _571  and  _572
REMARK  227  A    between atoms: _571  and  _574
REMARK  228  A    between atoms: _574  and  _575
REMARK  229  A    between atoms: _575  and  _576
REMARK  230  A    between atoms: _576  and  _577
REMARK  231  A    between atoms: _577  and  _578
REMARK  232  A    between atoms: _582  and  _584
REMARK  233  A    between atoms: _584  and  _585
REMARK  234  A    between atoms: _584  and  _587
REMARK  235  A    between atoms: _587  and  _588
REMARK  236  A    between atoms: _590  and  _592
REMARK  237  A    between atoms: _592  and  _593
REMARK  238  A    between atoms: _592  and  _595
REMARK  239  A    between atoms: _595  and  _596
REMARK  240  A    between atoms: _596  and  _597
REMARK  241  A    between atoms: _597  and  _598
REMARK                            x       y       z     vdW  Elec       q    Type
REMARK                         _______ _______ _______ _____ _____    ______ ____
ROOT
ATOM      1  O   HOH     1      12.610  20.244  25.749  0.00  0.00    +0.000 OA
ENDROOT
TORSDOF 0
REMARK  Name = ../refined-set-2016/3wgg/3wgg_pocket.pdb
REMARK  241 active torsions:
REMARK  status: ('A' for Active; 'I' for Inactive)
REMARK    1  A    between atoms: _1  and  _3
REMARK    2  A    between atoms: _3  and  _4
REMARK    3  A    between atoms: _3  and  _6
REMARK    4  A    between atoms: _6  and  _7
REMARK    5  A    between atoms: _10  and  _12
REMARK    6  A    between atoms: _12  and  _13
REMARK    7  A    between atoms: _12  and  _15
REMARK    8  A    between atoms: _15  and  _16
REMARK    9  A    between atoms: _19  and  _21
REMARK   10  A    between atoms: _21  and  _22
REMARK   11  A    between atoms: _24  and  _26
REMARK   12  A    between atoms: _26  and  _27
REMARK   13  A    between atoms: _30  and  _32
REMARK   14  A    between atoms: _32  and  _33
REMARK   15  A    between atoms: _35  and  _37
REMARK   16  A    between atoms: _37  and  _38
REMARK   17  A    between atoms: _37  and  _40
REMARK   18  A    between atoms: _40  and  _41
REMARK   19  A    between atoms: _46  and  _48
REMARK   20  A    between atoms: _48  and  _49
REMARK   21  A    between atoms: _48  and  _51
REMARK   22  A    between atoms: _51  and  _52
REMARK   23  A    between atoms: _55  and  _57
REMARK   24  A    between atoms: _57  and  _58
REMARK   25  A    between atoms: _60  and  _62
REMARK   26  A    between atoms: _62  and  _63
REMARK   27  A    between atoms: _62  and  _65
REMARK   28  A    between atoms: _65  and  _66
REMARK   29  A    between atoms: _66  and  _67
REMARK   30  A    between atoms: _72  and  _74
REMARK   31  A    between atoms: _74  and  _75
REMARK   32  A    between atoms: _78  and  _80
REMARK   33  A    between atoms: _80  and  _81
REMARK   34  A    between atoms: _80  and  _83
REMARK   35  A    between atoms: _83  and  _84
REMARK   36  A    between atoms: _87  and  _89
REMARK   37  A    between atoms: _89  and  _90
REMARK   38  A    between atoms: _89  and  _92
REMARK   39  A    between atoms: _92  and  _93
REMARK   40  A    between atoms: _96  and  _98
REMARK   41  A    between atoms: _98  and  _99
REMARK   42  A    between atoms: _98  and  _101
REMARK   43  A    between atoms: _101  and  _102
REMARK   44  A    between atoms: _108  and  _110
REMARK   45  A    between atoms: _110  and  _111
REMARK   46  A    between atoms: _110  and  _113
REMARK   47  A    between atoms: _113  and  _114
REMARK   48  A    between atoms: _117  and  _119
REMARK   49  A    between atoms: _119  and  _120
REMARK   50  A    between atoms: _119  and  _122
REMARK   51  A    between atoms: _122  and  _123
REMARK   52  A    between atoms: _126  and  _128
REMARK   53  A    between atoms: _128  and  _129
REMARK   54  A    between atoms: _128  and  _131
REMARK   55  A    between atoms: _131  and  _132
REMARK   56  A    between atoms: _138  and  _139
REMARK   57  A    between atoms: _144  and  _146
REMARK   58  A    between atoms: _146  and  _147
REMARK   59  A    between atoms: _146  and  _149
REMARK   60  A    between atoms: _149  and  _150
REMARK   61  A    between atoms: _150  and  _151
REMARK   62  A    between atoms: _151  and  _152
REMARK   63  A    between atoms: _161  and  _163
REMARK   64  A    between atoms: _163  and  _164
REMARK   65  A    between atoms: _163  and  _166
REMARK   66  A    between atoms: _166  and  _167
REMARK   67  A    between atoms: _170  and  _172
REMARK   68  A    between atoms: _172  and  _173
REMARK   69  A    between atoms: _172  and  _175
REMARK   70  A    between atoms: _175  and  _176
REMARK   71  A    between atoms: _182  and  _184
REMARK   72  A    between atoms: _184  and  _185
REMARK   73  A    between atoms: _184  and  _187
REMARK   74  A    between atoms: _190  and  _192
REMARK   75  A    between atoms: _192  and  _193
REMARK   76  A    between atoms: _192  and  _195
REMARK   77  A    between atoms: _195  and  _196
REMARK   78  A    between atoms: _196  and  _197
REMARK   79  A    between atoms: _199  and  _201
REMARK   80  A    between atoms: _201  and  _202
REMARK   81  A    between atoms: _201  and  _204
REMARK   82  A    between atoms: _204  and  _205
REMARK   83  A    between atoms: _208  and  _210
REMARK   84  A    between atoms: _210  and  _211
REMARK   85  A    between atoms: _210  and  _213
REMARK   86  A    between atoms: _216  and  _218
REMARK   87  A    between atoms: _218  and  _219
REMARK   88  A    between atoms: _218  and  _221
REMARK   89  A    between atoms: _221  and  _222
REMARK   90  A    between atoms: _222  and  _223
REMARK   91  A    between atoms: _226  and  _228
REMARK   92  A    between atoms: _228  and  _229
REMARK   93  A    between atoms: _228  and  _231
REMARK   94  A    between atoms: _234  and  _236
REMARK   95  A    between atoms: _236  and  _237
REMARK   96  A    between atoms: _236  and  _239
REMARK   97  A    between atoms: _239  and  _240
REMARK   98  A    between atoms: _243  and  _245
REMARK   99  A    between atoms: _245  and  _246
REMARK  100  A    between atoms: _245  and  _248
REMARK  101  A    between atoms: _250  and  _252
REMARK  102  A    between atoms: _252  and  _253
REMARK  103  A    between atoms: _252  and  _255
REMARK  104  A    between atoms: _255  and  _256
REMARK  105  A    between atoms: _260  and  _261
REMARK  106  A    between atoms: _266  and  _268
REMARK  107  A    between atoms: _268  and  _269
REMARK  108  A    between atoms: _268  and  _271
REMARK  109  A    between atoms: _271  and  _272
REMARK  110  A    between atoms: _272  and  _273
REMARK  111  A    between atoms: _273  and  _274
REMARK  112  A    between atoms: _274  and  _275
REMARK  113  A    between atoms: _279  and  _281
REMARK  114  A    between atoms: _281  and  _282
REMARK  115  A    between atoms: _281  and  _284
REMARK  116  A    between atoms: _284  and  _285
REMARK  117  A    between atoms: _288  and  _290
REMARK  118  A    between atoms: _290  and  _291
REMARK  119  A    between atoms: _290  and  _293
REMARK  120  A    between atoms: _293  and  _294
REMARK  121  A    between atoms: _299  and  _301
REMARK  122  A    between atoms: _301  and  _302
REMARK  123  A    between atoms: _305  and  _307
REMARK  124  A    between atoms: _307  and  _308
REMARK  125  A    between atoms: _307  and  _310
REMARK  126  A    between atoms: _310  and  _311
REMARK  127  A    between atoms: _316  and  _317
REMARK  128  A    between atoms: _319  and  _321
REMARK  129  A    between atoms: _321  and  _322
REMARK  130  A    between atoms: _321  and  _324
REMARK  131  A    between atoms: _324  and  _325
REMARK  132  A    between atoms: _328  and  _330
REMARK  133  A    between atoms: _330  and  _331
REMARK  134  A    between atoms: _334  and  _336
REMARK  135  A    between atoms: _336  and  _337
REMARK  136  A    between atoms: _336  and  _339
REMARK  137  A    between atoms: _339  and  _340
REMARK  138  A    between atoms: _340  and  _341
REMARK  139  A    between atoms: _341  and  _342
REMARK  140  A    between atoms: _351  and  _353
REMARK  141  A    between atoms: _353  and  _354
REMARK  142  A    between atoms: _353  and  _356
REMARK  143  A    between atoms: _356  and  _357
REMARK  144  A    between atoms: _362  and  _364
REMARK  145  A    between atoms: _364  and  _365
REMARK  146  A    between atoms: _364  and  _367
REMARK  147  A    between atoms: _367  and  _368
REMARK  148  A    between atoms: _374  and  _376
REMARK  149  A    between atoms: _376  and  _377
REMARK  150  A    between atoms: _376  and  _379
REMARK  151  A    between atoms: _379  and  _380
REMARK  152  A    between atoms: _384  and  _385
REMARK  153  A    between atoms: _390  and  _392
REMARK  154  A    between atoms: _392  and  _393
REMARK  155  A    between atoms: _392  and  _395
REMARK  156  A    between atoms: _395  and  _396
REMARK  157  A    between atoms: _399  and  _401
REMARK  158  A    between atoms: _401  and  _402
REMARK  159  A    between atoms: _401  and  _404
REMARK  160  A    between atoms: _407  and  _409
REMARK  161  A    between atoms: _409  and  _410
REMARK  162  A    between atoms: _409  and  _412
REMARK  163  A    between atoms: _412  and  _413
REMARK  164  A    between atoms: _418  and  _420
REMARK  165  A    between atoms: _420  and  _421
REMARK  166  A    between atoms: _420  and  _423
REMARK  167  A    between atoms: _423  and  _424
REMARK  168  A    between atoms: _427  and  _429
REMARK  169  A    between atoms: _429  and  _430
REMARK  170  A    between atoms: _429  and  _432
REMARK  171  A    between atoms: _432  and  _433
REMARK  172  A    between atoms: _435  and  _437
REMARK  173  A    between atoms: _437  and  _438
REMARK  174  A    between atoms: _437  and  _440
REMARK  175  A    between atoms: _440  and  _441
REMARK  176  A    between atoms: _447  and  _449
REMARK  177  A    between atoms: _449  and  _450
REMARK  178  A    between atoms: _449  and  _452
REMARK  179  A    between atoms: _452  and  _453
REMARK  180  A    between atoms: _458  and  _460
REMARK  181  A    between atoms: _460  and  _461
REMARK  182  A    between atoms: _460  and  _463
REMARK  183  A    between atoms: _463  and  _464
REMARK  184  A    between atoms: _467  and  _469
REMARK  185  A    between atoms: _469  and  _470
REMARK  186  A    between atoms: _472  and  _474
REMARK  187  A    between atoms: _474  and  _475
REMARK  188  A    between atoms: _474  and  _477
REMARK  189  A    between atoms: _477  and  _478
REMARK  190  A    between atoms: _478  and  _479
REMARK  191  A    between atoms: _484  and  _486
REMARK  192  A    between atoms: _486  and  _487
REMARK  193  A    between atoms: _490  and  _492
REMARK  194  A    between atoms: _492  and  _493
REMARK  195  A    between atoms: _492  and  _495
REMARK  196  A    between atoms: _495  and  _496
REMARK  197  A    between atoms: _499  and  _501
REMARK  198  A    between atoms: _501  and  _502
REMARK  199  A    between atoms: _505  and  _507
REMARK  200  A    between atoms: _507  and  _508
REMARK  201  A    between atoms: _507  and  _510
REMARK  202  A    between atoms: _510  and  _511
REMARK  203  A    between atoms: _516  and  _518
REMARK  204  A    between atoms: _518  and  _519
REMARK  205  A    between atoms: _518  and  _521
REMARK  206  A    between atoms: _521  and  _522
REMARK  207  A    between atoms: _527  and  _528
REMARK  208  A    between atoms: _530  and  _532
REMARK  209  A    between atoms: _532  and  _533
REMARK  210  A    between atoms: _532  and  _535
REMARK  211  A    between atoms: _535  and  _536
REMARK  212  A    between atoms: _539  and  _541
REMARK  213  A    between atoms: _541  and  _542
REMARK  214  A    between atoms: _541  and  _544
REMARK  215  A    between atoms: _544  and  _545
REMARK  216  A    between atoms: _547  and  _549
REMARK  217  A    between atoms: _549  and  _550
REMARK  218  A    between atoms: _549  and  _552
REMARK  219  A    between atoms: _552  and  _553
REMARK  220  A    between atoms: _559  and  _561
REMARK  221  A    between atoms: _561  and  _562
REMARK  222  A    between atoms: _561  and  _564
REMARK  223  A    between atoms: _564  and  _565
REMARK  224  A    between atoms: _565  and  _566
REMARK  225  A    between atoms: _569  and  _571
REMARK  226  A    between atoms: _571  and  _572
REMARK  227  A    between atoms: _571  and  _574
REMARK  228  A    between atoms: _574  and  _575
REMARK  229  A    between atoms: _575  and  _576
REMARK  230  A    between atoms: _576  and  _577
REMARK  231  A    between atoms: _577  and  _578
REMARK  232  A    between atoms: _582  and  _584
REMARK  233  A    between atoms: _584  and  _585
REMARK  234  A    between atoms: _584  and  _587
REMARK  235  A    between atoms: _587  and  _588
REMARK  236  A    between atoms: _590  and  _592
REMARK  237  A    between atoms: _592  and  _593
REMARK  238  A    between atoms: _592  and  _595
REMARK  239  A    between atoms: _595  and  _596
REMARK  240  A    between atoms: _596  and  _597
REMARK  241  A    between atoms: _597  and  _598
REMARK                            x       y       z     vdW  Elec       q    Type
REMARK                         _______ _______ _______ _____ _____    ______ ____
ROOT
ATOM      1  O   HOH     1       4.416  31.133   8.281  0.00  0.00    +0.000 OA
ENDROOT
TORSDOF 0
REMARK  Name = ../refined-set-2016/3wgg/3wgg_pocket.pdb
REMARK  241 active torsions:
REMARK  status: ('A' for Active; 'I' for Inactive)
REMARK    1  A    between atoms: _1  and  _3
REMARK    2  A    between atoms: _3  and  _4
REMARK    3  A    between atoms: _3  and  _6
REMARK    4  A    between atoms: _6  and  _7
REMARK    5  A    between atoms: _10  and  _12
REMARK    6  A    between atoms: _12  and  _13
REMARK    7  A    between atoms: _12  and  _15
REMARK    8  A    between atoms: _15  and  _16
REMARK    9  A    between atoms: _19  and  _21
REMARK   10  A    between atoms: _21  and  _22
REMARK   11  A    between atoms: _24  and  _26
REMARK   12  A    between atoms: _26  and  _27
REMARK   13  A    between atoms: _30  and  _32
REMARK   14  A    between atoms: _32  and  _33
REMARK   15  A    between atoms: _35  and  _37
REMARK   16  A    between atoms: _37  and  _38
REMARK   17  A    between atoms: _37  and  _40
REMARK   18  A    between atoms: _40  and  _41
REMARK   19  A    between atoms: _46  and  _48
REMARK   20  A    between atoms: _48  and  _49
REMARK   21  A    between atoms: _48  and  _51
REMARK   22  A    between atoms: _51  and  _52
REMARK   23  A    between atoms: _55  and  _57
REMARK   24  A    between atoms: _57  and  _58
REMARK   25  A    between atoms: _60  and  _62
REMARK   26  A    between atoms: _62  and  _63
REMARK   27  A    between atoms: _62  and  _65
REMARK   28  A    between atoms: _65  and  _66
REMARK   29  A    between atoms: _66  and  _67
REMARK   30  A    between atoms: _72  and  _74
REMARK   31  A    between atoms: _74  and  _75
REMARK   32  A    between atoms: _78  and  _80
REMARK   33  A    between atoms: _80  and  _81
REMARK   34  A    between atoms: _80  and  _83
REMARK   35  A    between atoms: _83  and  _84
REMARK   36  A    between atoms: _87  and  _89
REMARK   37  A    between atoms: _89  and  _90
REMARK   38  A    between atoms: _89  and  _92
REMARK   39  A    between atoms: _92  and  _93
REMARK   40  A    between atoms: _96  and  _98
REMARK   41  A    between atoms: _98  and  _99
REMARK   42  A    between atoms: _98  and  _101
REMARK   43  A    between atoms: _101  and  _102
REMARK   44  A    between atoms: _108  and  _110
REMARK   45  A    between atoms: _110  and  _111
REMARK   46  A    between atoms: _110  and  _113
REMARK   47  A    between atoms: _113  and  _114
REMARK   48  A    between atoms: _117  and  _119
REMARK   49  A    between atoms: _119  and  _120
REMARK   50  A    between atoms: _119  and  _122
REMARK   51  A    between atoms: _122  and  _123
REMARK   52  A    between atoms: _126  and  _128
REMARK   53  A    between atoms: _128  and  _129
REMARK   54  A    between atoms: _128  and  _131
REMARK   55  A    between atoms: _131  and  _132
REMARK   56  A    between atoms: _138  and  _139
REMARK   57  A    between atoms: _144  and  _146
REMARK   58  A    between atoms: _146  and  _147
REMARK   59  A    between atoms: _146  and  _149
REMARK   60  A    between atoms: _149  and  _150
REMARK   61  A    between atoms: _150  and  _151
REMARK   62  A    between atoms: _151  and  _152
REMARK   63  A    between atoms: _161  and  _163
REMARK   64  A    between atoms: _163  and  _164
REMARK   65  A    between atoms: _163  and  _166
REMARK   66  A    between atoms: _166  and  _167
REMARK   67  A    between atoms: _170  and  _172
REMARK   68  A    between atoms: _172  and  _173
REMARK   69  A    between atoms: _172  and  _175
REMARK   70  A    between atoms: _175  and  _176
REMARK   71  A    between atoms: _182  and  _184
REMARK   72  A    between atoms: _184  and  _185
REMARK   73  A    between atoms: _184  and  _187
REMARK   74  A    between atoms: _190  and  _192
REMARK   75  A    between atoms: _192  and  _193
REMARK   76  A    between atoms: _192  and  _195
REMARK   77  A    between atoms: _195  and  _196
REMARK   78  A    between atoms: _196  and  _197
REMARK   79  A    between atoms: _199  and  _201
REMARK   80  A    between atoms: _201  and  _202
REMARK   81  A    between atoms: _201  and  _204
REMARK   82  A    between atoms: _204  and  _205
REMARK   83  A    between atoms: _208  and  _210
REMARK   84  A    between atoms: _210  and  _211
REMARK   85  A    between atoms: _210  and  _213
REMARK   86  A    between atoms: _216  and  _218
REMARK   87  A    between atoms: _218  and  _219
REMARK   88  A    between atoms: _218  and  _221
REMARK   89  A    between atoms: _221  and  _222
REMARK   90  A    between atoms: _222  and  _223
REMARK   91  A    between atoms: _226  and  _228
REMARK   92  A    between atoms: _228  and  _229
REMARK   93  A    between atoms: _228  and  _231
REMARK   94  A    between atoms: _234  and  _236
REMARK   95  A    between atoms: _236  and  _237
REMARK   96  A    between atoms: _236  and  _239
REMARK   97  A    between atoms: _239  and  _240
REMARK   98  A    between atoms: _243  and  _245
REMARK   99  A    between atoms: _245  and  _246
REMARK  100  A    between atoms: _245  and  _248
REMARK  101  A    between atoms: _250  and  _252
REMARK  102  A    between atoms: _252  and  _253
REMARK  103  A    between atoms: _252  and  _255
REMARK  104  A    between atoms: _255  and  _256
REMARK  105  A    between atoms: _260  and  _261
REMARK  106  A    between atoms: _266  and  _268
REMARK  107  A    between atoms: _268  and  _269
REMARK  108  A    between atoms: _268  and  _271
REMARK  109  A    between atoms: _271  and  _272
REMARK  110  A    between atoms: _272  and  _273
REMARK  111  A    between atoms: _273  and  _274
REMARK  112  A    between atoms: _274  and  _275
REMARK  113  A    between atoms: _279  and  _281
REMARK  114  A    between atoms: _281  and  _282
REMARK  115  A    between atoms: _281  and  _284
REMARK  116  A    between atoms: _284  and  _285
REMARK  117  A    between atoms: _288  and  _290
REMARK  118  A    between atoms: _290  and  _291
REMARK  119  A    between atoms: _290  and  _293
REMARK  120  A    between atoms: _293  and  _294
REMARK  121  A    between atoms: _299  and  _301
REMARK  122  A    between atoms: _301  and  _302
REMARK  123  A    between atoms: _305  and  _307
REMARK  124  A    between atoms: _307  and  _308
REMARK  125  A    between atoms: _307  and  _310
REMARK  126  A    between atoms: _310  and  _311
REMARK  127  A    between atoms: _316  and  _317
REMARK  128  A    between atoms: _319  and  _321
REMARK  129  A    between atoms: _321  and  _322
REMARK  130  A    between atoms: _321  and  _324
REMARK  131  A    between atoms: _324  and  _325
REMARK  132  A    between atoms: _328  and  _330
REMARK  133  A    between atoms: _330  and  _331
REMARK  134  A    between atoms: _334  and  _336
REMARK  135  A    between atoms: _336  and  _337
REMARK  136  A    between atoms: _336  and  _339
REMARK  137  A    between atoms: _339  and  _340
REMARK  138  A    between atoms: _340  and  _341
REMARK  139  A    between atoms: _341  and  _342
REMARK  140  A    between atoms: _351  and  _353
REMARK  141  A    between atoms: _353  and  _354
REMARK  142  A    between atoms: _353  and  _356
REMARK  143  A    between atoms: _356  and  _357
REMARK  144  A    between atoms: _362  and  _364
REMARK  145  A    between atoms: _364  and  _365
REMARK  146  A    between atoms: _364  and  _367
REMARK  147  A    between atoms: _367  and  _368
REMARK  148  A    between atoms: _374  and  _376
REMARK  149  A    between atoms: _376  and  _377
REMARK  150  A    between atoms: _376  and  _379
REMARK  151  A    between atoms: _379  and  _380
REMARK  152  A    between atoms: _384  and  _385
REMARK  153  A    between atoms: _390  and  _392
REMARK  154  A    between atoms: _392  and  _393
REMARK  155  A    between atoms: _392  and  _395
REMARK  156  A    between atoms: _395  and  _396
REMARK  157  A    between atoms: _399  and  _401
REMARK  158  A    between atoms: _401  and  _402
REMARK  159  A    between atoms: _401  and  _404
REMARK  160  A    between atoms: _407  and  _409
REMARK  161  A    between atoms: _409  and  _410
REMARK  162  A    between atoms: _409  and  _412
REMARK  163  A    between atoms: _412  and  _413
REMARK  164  A    between atoms: _418  and  _420
REMARK  165  A    between atoms: _420  and  _421
REMARK  166  A    between atoms: _420  and  _423
REMARK  167  A    between atoms: _423  and  _424
REMARK  168  A    between atoms: _427  and  _429
REMARK  169  A    between atoms: _429  and  _430
REMARK  170  A    between atoms: _429  and  _432
REMARK  171  A    between atoms: _432  and  _433
REMARK  172  A    between atoms: _435  and  _437
REMARK  173  A    between atoms: _437  and  _438
REMARK  174  A    between atoms: _437  and  _440
REMARK  175  A    between atoms: _440  and  _441
REMARK  176  A    between atoms: _447  and  _449
REMARK  177  A    between atoms: _449  and  _450
REMARK  178  A    between atoms: _449  and  _452
REMARK  179  A    between atoms: _452  and  _453
REMARK  180  A    between atoms: _458  and  _460
REMARK  181  A    between atoms: _460  and  _461
REMARK  182  A    between atoms: _460  and  _463
REMARK  183  A    between atoms: _463  and  _464
REMARK  184  A    between atoms: _467  and  _469
REMARK  185  A    between atoms: _469  and  _470
REMARK  186  A    between atoms: _472  and  _474
REMARK  187  A    between atoms: _474  and  _475
REMARK  188  A    between atoms: _474  and  _477
REMARK  189  A    between atoms: _477  and  _478
REMARK  190  A    between atoms: _478  and  _479
REMARK  191  A    between atoms: _484  and  _486
REMARK  192  A    between atoms: _486  and  _487
REMARK  193  A    between atoms: _490  and  _492
REMARK  194  A    between atoms: _492  and  _493
REMARK  195  A    between atoms: _492  and  _495
REMARK  196  A    between atoms: _495  and  _496
REMARK  197  A    between atoms: _499  and  _501
REMARK  198  A    between atoms: _501  and  _502
REMARK  199  A    between atoms: _505  and  _507
REMARK  200  A    between atoms: _507  and  _508
REMARK  201  A    between atoms: _507  and  _510
REMARK  202  A    between atoms: _510  and  _511
REMARK  203  A    between atoms: _516  and  _518
REMARK  204  A    between atoms: _518  and  _519
REMARK  205  A    between atoms: _518  and  _521
REMARK  206  A    between atoms: _521  and  _522
REMARK  207  A    between atoms: _527  and  _528
REMARK  208  A    between atoms: _530  and  _532
REMARK  209  A    between atoms: _532  and  _533
REMARK  210  A    between atoms: _532  and  _535
REMARK  211  A    between atoms: _535  and  _536
REMARK  212  A    between atoms: _539  and  _541
REMARK  213  A    between atoms: _541  and  _542
REMARK  214  A    between atoms: _541  and  _544
REMARK  215  A    between atoms: _544  and  _545
REMARK  216  A    between atoms: _547  and  _549
REMARK  217  A    between atoms: _549  and  _550
REMARK  218  A    between atoms: _549  and  _552
REMARK  219  A    between atoms: _552  and  _553
REMARK  220  A    between atoms: _559  and  _561
REMARK  221  A    between atoms: _561  and  _562
REMARK  222  A    between atoms: _561  and  _564
REMARK  223  A    between atoms: _564  and  _565
REMARK  224  A    between atoms: _565  and  _566
REMARK  225  A    between atoms: _569  and  _571
REMARK  226  A    between atoms: _571  and  _572
REMARK  227  A    between atoms: _571  and  _574
REMARK  228  A    between atoms: _574  and  _575
REMARK  229  A    between atoms: _575  and  _576
REMARK  230  A    between atoms: _576  and  _577
REMARK  231  A    between atoms: _577  and  _578
REMARK  232  A    between atoms: _582  and  _584
REMARK  233  A    between atoms: _584  and  _585
REMARK  234  A    between atoms: _584  and  _587
REMARK  235  A    between atoms: _587  and  _588
REMARK  236  A    between atoms: _590  and  _592
REMARK  237  A    between atoms: _592  and  _593
REMARK  238  A    between atoms: _592  and  _595
REMARK  239  A    between atoms: _595  and  _596
REMARK  240  A    between atoms: _596  and  _597
REMARK  241  A    between atoms: _597  and  _598
REMARK                            x       y       z     vdW  Elec       q    Type
REMARK                         _______ _______ _______ _____ _____    ______ ____
ROOT
ATOM      1  O   HOH     1      -7.009  27.017  12.112  0.00  0.00    +0.000 OA
ENDROOT
TORSDOF 0
REMARK  Name = ../refined-set-2016/3wgg/3wgg_pocket.pdb
REMARK  241 active torsions:
REMARK  status: ('A' for Active; 'I' for Inactive)
REMARK    1  A    between atoms: _1  and  _3
REMARK    2  A    between atoms: _3  and  _4
REMARK    3  A    between atoms: _3  and  _6
REMARK    4  A    between atoms: _6  and  _7
REMARK    5  A    between atoms: _10  and  _12
REMARK    6  A    between atoms: _12  and  _13
REMARK    7  A    between atoms: _12  and  _15
REMARK    8  A    between atoms: _15  and  _16
REMARK    9  A    between atoms: _19  and  _21
REMARK   10  A    between atoms: _21  and  _22
REMARK   11  A    between atoms: _24  and  _26
REMARK   12  A    between atoms: _26  and  _27
REMARK   13  A    between atoms: _30  and  _32
REMARK   14  A    between atoms: _32  and  _33
REMARK   15  A    between atoms: _35  and  _37
REMARK   16  A    between atoms: _37  and  _38
REMARK   17  A    between atoms: _37  and  _40
REMARK   18  A    between atoms: _40  and  _41
REMARK   19  A    between atoms: _46  and  _48
REMARK   20  A    between atoms: _48  and  _49
REMARK   21  A    between atoms: _48  and  _51
REMARK   22  A    between atoms: _51  and  _52
REMARK   23  A    between atoms: _55  and  _57
REMARK   24  A    between atoms: _57  and  _58
REMARK   25  A    between atoms: _60  and  _62
REMARK   26  A    between atoms: _62  and  _63
REMARK   27  A    between atoms: _62  and  _65
REMARK   28  A    between atoms: _65  and  _66
REMARK   29  A    between atoms: _66  and  _67
REMARK   30  A    between atoms: _72  and  _74
REMARK   31  A    between atoms: _74  and  _75
REMARK   32  A    between atoms: _78  and  _80
REMARK   33  A    between atoms: _80  and  _81
REMARK   34  A    between atoms: _80  and  _83
REMARK   35  A    between atoms: _83  and  _84
REMARK   36  A    between atoms: _87  and  _89
REMARK   37  A    between atoms: _89  and  _90
REMARK   38  A    between atoms: _89  and  _92
REMARK   39  A    between atoms: _92  and  _93
REMARK   40  A    between atoms: _96  and  _98
REMARK   41  A    between atoms: _98  and  _99
REMARK   42  A    between atoms: _98  and  _101
REMARK   43  A    between atoms: _101  and  _102
REMARK   44  A    between atoms: _108  and  _110
REMARK   45  A    between atoms: _110  and  _111
REMARK   46  A    between atoms: _110  and  _113
REMARK   47  A    between atoms: _113  and  _114
REMARK   48  A    between atoms: _117  and  _119
REMARK   49  A    between atoms: _119  and  _120
REMARK   50  A    between atoms: _119  and  _122
REMARK   51  A    between atoms: _122  and  _123
REMARK   52  A    between atoms: _126  and  _128
REMARK   53  A    between atoms: _128  and  _129
REMARK   54  A    between atoms: _128  and  _131
REMARK   55  A    between atoms: _131  and  _132
REMARK   56  A    between atoms: _138  and  _139
REMARK   57  A    between atoms: _144  and  _146
REMARK   58  A    between atoms: _146  and  _147
REMARK   59  A    between atoms: _146  and  _149
REMARK   60  A    between atoms: _149  and  _150
REMARK   61  A    between atoms: _150  and  _151
REMARK   62  A    between atoms: _151  and  _152
REMARK   63  A    between atoms: _161  and  _163
REMARK   64  A    between atoms: _163  and  _164
REMARK   65  A    between atoms: _163  and  _166
REMARK   66  A    between atoms: _166  and  _167
REMARK   67  A    between atoms: _170  and  _172
REMARK   68  A    between atoms: _172  and  _173
REMARK   69  A    between atoms: _172  and  _175
REMARK   70  A    between atoms: _175  and  _176
REMARK   71  A    between atoms: _182  and  _184
REMARK   72  A    between atoms: _184  and  _185
REMARK   73  A    between atoms: _184  and  _187
REMARK   74  A    between atoms: _190  and  _192
REMARK   75  A    between atoms: _192  and  _193
REMARK   76  A    between atoms: _192  and  _195
REMARK   77  A    between atoms: _195  and  _196
REMARK   78  A    between atoms: _196  and  _197
REMARK   79  A    between atoms: _199  and  _201
REMARK   80  A    between atoms: _201  and  _202
REMARK   81  A    between atoms: _201  and  _204
REMARK   82  A    between atoms: _204  and  _205
REMARK   83  A    between atoms: _208  and  _210
REMARK   84  A    between atoms: _210  and  _211
REMARK   85  A    between atoms: _210  and  _213
REMARK   86  A    between atoms: _216  and  _218
REMARK   87  A    between atoms: _218  and  _219
REMARK   88  A    between atoms: _218  and  _221
REMARK   89  A    between atoms: _221  and  _222
REMARK   90  A    between atoms: _222  and  _223
REMARK   91  A    between atoms: _226  and  _228
REMARK   92  A    between atoms: _228  and  _229
REMARK   93  A    between atoms: _228  and  _231
REMARK   94  A    between atoms: _234  and  _236
REMARK   95  A    between atoms: _236  and  _237
REMARK   96  A    between atoms: _236  and  _239
REMARK   97  A    between atoms: _239  and  _240
REMARK   98  A    between atoms: _243  and  _245
REMARK   99  A    between atoms: _245  and  _246
REMARK  100  A    between atoms: _245  and  _248
REMARK  101  A    between atoms: _250  and  _252
REMARK  102  A    between atoms: _252  and  _253
REMARK  103  A    between atoms: _252  and  _255
REMARK  104  A    between atoms: _255  and  _256
REMARK  105  A    between atoms: _260  and  _261
REMARK  106  A    between atoms: _266  and  _268
REMARK  107  A    between atoms: _268  and  _269
REMARK  108  A    between atoms: _268  and  _271
REMARK  109  A    between atoms: _271  and  _272
REMARK  110  A    between atoms: _272  and  _273
REMARK  111  A    between atoms: _273  and  _274
REMARK  112  A    between atoms: _274  and  _275
REMARK  113  A    between atoms: _279  and  _281
REMARK  114  A    between atoms: _281  and  _282
REMARK  115  A    between atoms: _281  and  _284
REMARK  116  A    between atoms: _284  and  _285
REMARK  117  A    between atoms: _288  and  _290
REMARK  118  A    between atoms: _290  and  _291
REMARK  119  A    between atoms: _290  and  _293
REMARK  120  A    between atoms: _293  and  _294
REMARK  121  A    between atoms: _299  and  _301
REMARK  122  A    between atoms: _301  and  _302
REMARK  123  A    between atoms: _305  and  _307
REMARK  124  A    between atoms: _307  and  _308
REMARK  125  A    between atoms: _307  and  _310
REMARK  126  A    between atoms: _310  and  _311
REMARK  127  A    between atoms: _316  and  _317
REMARK  128  A    between atoms: _319  and  _321
REMARK  129  A    between atoms: _321  and  _322
REMARK  130  A    between atoms: _321  and  _324
REMARK  131  A    between atoms: _324  and  _325
REMARK  132  A    between atoms: _328  and  _330
REMARK  133  A    between atoms: _330  and  _331
REMARK  134  A    between atoms: _334  and  _336
REMARK  135  A    between atoms: _336  and  _337
REMARK  136  A    between atoms: _336  and  _339
REMARK  137  A    between atoms: _339  and  _340
REMARK  138  A    between atoms: _340  and  _341
REMARK  139  A    between atoms: _341  and  _342
REMARK  140  A    between atoms: _351  and  _353
REMARK  141  A    between atoms: _353  and  _354
REMARK  142  A    between atoms: _353  and  _356
REMARK  143  A    between atoms: _356  and  _357
REMARK  144  A    between atoms: _362  and  _364
REMARK  145  A    between atoms: _364  and  _365
REMARK  146  A    between atoms: _364  and  _367
REMARK  147  A    between atoms: _367  and  _368
REMARK  148  A    between atoms: _374  and  _376
REMARK  149  A    between atoms: _376  and  _377
REMARK  150  A    between atoms: _376  and  _379
REMARK  151  A    between atoms: _379  and  _380
REMARK  152  A    between atoms: _384  and  _385
REMARK  153  A    between atoms: _390  and  _392
REMARK  154  A    between atoms: _392  and  _393
REMARK  155  A    between atoms: _392  and  _395
REMARK  156  A    between atoms: _395  and  _396
REMARK  157  A    between atoms: _399  and  _401
REMARK  158  A    between atoms: _401  and  _402
REMARK  159  A    between atoms: _401  and  _404
REMARK  160  A    between atoms: _407  and  _409
REMARK  161  A    between atoms: _409  and  _410
REMARK  162  A    between atoms: _409  and  _412
REMARK  163  A    between atoms: _412  and  _413
REMARK  164  A    between atoms: _418  and  _420
REMARK  165  A    between atoms: _420  and  _421
REMARK  166  A    between atoms: _420  and  _423
REMARK  167  A    between atoms: _423  and  _424
REMARK  168  A    between atoms: _427  and  _429
REMARK  169  A    between atoms: _429  and  _430
REMARK  170  A    between atoms: _429  and  _432
REMARK  171  A    between atoms: _432  and  _433
REMARK  172  A    between atoms: _435  and  _437
REMARK  173  A    between atoms: _437  and  _438
REMARK  174  A    between atoms: _437  and  _440
REMARK  175  A    between atoms: _440  and  _441
REMARK  176  A    between atoms: _447  and  _449
REMARK  177  A    between atoms: _449  and  _450
REMARK  178  A    between atoms: _449  and  _452
REMARK  179  A    between atoms: _452  and  _453
REMARK  180  A    between atoms: _458  and  _460
REMARK  181  A    between atoms: _460  and  _461
REMARK  182  A    between atoms: _460  and  _463
REMARK  183  A    between atoms: _463  and  _464
REMARK  184  A    between atoms: _467  and  _469
REMARK  185  A    between atoms: _469  and  _470
REMARK  186  A    between atoms: _472  and  _474
REMARK  187  A    between atoms: _474  and  _475
REMARK  188  A    between atoms: _474  and  _477
REMARK  189  A    between atoms: _477  and  _478
REMARK  190  A    between atoms: _478  and  _479
REMARK  191  A    between atoms: _484  and  _486
REMARK  192  A    between atoms: _486  and  _487
REMARK  193  A    between atoms: _490  and  _492
REMARK  194  A    between atoms: _492  and  _493
REMARK  195  A    between atoms: _492  and  _495
REMARK  196  A    between atoms: _495  and  _496
REMARK  197  A    between atoms: _499  and  _501
REMARK  198  A    between atoms: _501  and  _502
REMARK  199  A    between atoms: _505  and  _507
REMARK  200  A    between atoms: _507  and  _508
REMARK  201  A    between atoms: _507  and  _510
REMARK  202  A    between atoms: _510  and  _511
REMARK  203  A    between atoms: _516  and  _518
REMARK  204  A    between atoms: _518  and  _519
REMARK  205  A    between atoms: _518  and  _521
REMARK  206  A    between atoms: _521  and  _522
REMARK  207  A    between atoms: _527  and  _528
REMARK  208  A    between atoms: _530  and  _532
REMARK  209  A    between atoms: _532  and  _533
REMARK  210  A    between atoms: _532  and  _535
REMARK  211  A    between atoms: _535  and  _536
REMARK  212  A    between atoms: _539  and  _541
REMARK  213  A    between atoms: _541  and  _542
REMARK  214  A    between atoms: _541  and  _544
REMARK  215  A    between atoms: _544  and  _545
REMARK  216  A    between atoms: _547  and  _549
REMARK  217  A    between atoms: _549  and  _550
REMARK  218  A    between atoms: _549  and  _552
REMARK  219  A    between atoms: _552  and  _553
REMARK  220  A    between atoms: _559  and  _561
REMARK  221  A    between atoms: _561  and  _562
REMARK  222  A    between atoms: _561  and  _564
REMARK  223  A    between atoms: _564  and  _565
REMARK  224  A    between atoms: _565  and  _566
REMARK  225  A    between atoms: _569  and  _571
REMARK  226  A    between atoms: _571  and  _572
REMARK  227  A    between atoms: _571  and  _574
REMARK  228  A    between atoms: _574  and  _575
REMARK  229  A    between atoms: _575  and  _576
REMARK  230  A    between atoms: _576  and  _577
REMARK  231  A    between atoms: _577  and  _578
REMARK  232  A    between atoms: _582  and  _584
REMARK  233  A    between atoms: _584  and  _585
REMARK  234  A    between atoms: _584  and  _587
REMARK  235  A    between atoms: _587  and  _588
REMARK  236  A    between atoms: _590  and  _592
REMARK  237  A    between atoms: _592  and  _593
REMARK  238  A    between atoms: _592  and  _595
REMARK  239  A    between atoms: _595  and  _596
REMARK  240  A    between atoms: _596  and  _597
REMARK  241  A    between atoms: _597  and  _598
REMARK                            x       y       z     vdW  Elec       q    Type
REMARK                         _______ _______ _______ _____ _____    ______ ____
ROOT
ATOM      1  O   HOH     1      16.124  30.828  21.184  0.00  0.00    +0.000 OA
ENDROOT
TORSDOF 0
REMARK  Name = ../refined-set-2016/3wgg/3wgg_pocket.pdb
REMARK  241 active torsions:
REMARK  status: ('A' for Active; 'I' for Inactive)
REMARK    1  A    between atoms: _1  and  _3
REMARK    2  A    between atoms: _3  and  _4
REMARK    3  A    between atoms: _3  and  _6
REMARK    4  A    between atoms: _6  and  _7
REMARK    5  A    between atoms: _10  and  _12
REMARK    6  A    between atoms: _12  and  _13
REMARK    7  A    between atoms: _12  and  _15
REMARK    8  A    between atoms: _15  and  _16
REMARK    9  A    between atoms: _19  and  _21
REMARK   10  A    between atoms: _21  and  _22
REMARK   11  A    between atoms: _24  and  _26
REMARK   12  A    between atoms: _26  and  _27
REMARK   13  A    between atoms: _30  and  _32
REMARK   14  A    between atoms: _32  and  _33
REMARK   15  A    between atoms: _35  and  _37
REMARK   16  A    between atoms: _37  and  _38
REMARK   17  A    between atoms: _37  and  _40
REMARK   18  A    between atoms: _40  and  _41
REMARK   19  A    between atoms: _46  and  _48
REMARK   20  A    between atoms: _48  and  _49
REMARK   21  A    between atoms: _48  and  _51
REMARK   22  A    between atoms: _51  and  _52
REMARK   23  A    between atoms: _55  and  _57
REMARK   24  A    between atoms: _57  and  _58
REMARK   25  A    between atoms: _60  and  _62
REMARK   26  A    between atoms: _62  and  _63
REMARK   27  A    between atoms: _62  and  _65
REMARK   28  A    between atoms: _65  and  _66
REMARK   29  A    between atoms: _66  and  _67
REMARK   30  A    between atoms: _72  and  _74
REMARK   31  A    between atoms: _74  and  _75
REMARK   32  A    between atoms: _78  and  _80
REMARK   33  A    between atoms: _80  and  _81
REMARK   34  A    between atoms: _80  and  _83
REMARK   35  A    between atoms: _83  and  _84
REMARK   36  A    between atoms: _87  and  _89
REMARK   37  A    between atoms: _89  and  _90
REMARK   38  A    between atoms: _89  and  _92
REMARK   39  A    between atoms: _92  and  _93
REMARK   40  A    between atoms: _96  and  _98
REMARK   41  A    between atoms: _98  and  _99
REMARK   42  A    between atoms: _98  and  _101
REMARK   43  A    between atoms: _101  and  _102
REMARK   44  A    between atoms: _108  and  _110
REMARK   45  A    between atoms: _110  and  _111
REMARK   46  A    between atoms: _110  and  _113
REMARK   47  A    between atoms: _113  and  _114
REMARK   48  A    between atoms: _117  and  _119
REMARK   49  A    between atoms: _119  and  _120
REMARK   50  A    between atoms: _119  and  _122
REMARK   51  A    between atoms: _122  and  _123
REMARK   52  A    between atoms: _126  and  _128
REMARK   53  A    between atoms: _128  and  _129
REMARK   54  A    between atoms: _128  and  _131
REMARK   55  A    between atoms: _131  and  _132
REMARK   56  A    between atoms: _138  and  _139
REMARK   57  A    between atoms: _144  and  _146
REMARK   58  A    between atoms: _146  and  _147
REMARK   59  A    between atoms: _146  and  _149
REMARK   60  A    between atoms: _149  and  _150
REMARK   61  A    between atoms: _150  and  _151
REMARK   62  A    between atoms: _151  and  _152
REMARK   63  A    between atoms: _161  and  _163
REMARK   64  A    between atoms: _163  and  _164
REMARK   65  A    between atoms: _163  and  _166
REMARK   66  A    between atoms: _166  and  _167
REMARK   67  A    between atoms: _170  and  _172
REMARK   68  A    between atoms: _172  and  _173
REMARK   69  A    between atoms: _172  and  _175
REMARK   70  A    between atoms: _175  and  _176
REMARK   71  A    between atoms: _182  and  _184
REMARK   72  A    between atoms: _184  and  _185
REMARK   73  A    between atoms: _184  and  _187
REMARK   74  A    between atoms: _190  and  _192
REMARK   75  A    between atoms: _192  and  _193
REMARK   76  A    between atoms: _192  and  _195
REMARK   77  A    between atoms: _195  and  _196
REMARK   78  A    between atoms: _196  and  _197
REMARK   79  A    between atoms: _199  and  _201
REMARK   80  A    between atoms: _201  and  _202
REMARK   81  A    between atoms: _201  and  _204
REMARK   82  A    between atoms: _204  and  _205
REMARK   83  A    between atoms: _208  and  _210
REMARK   84  A    between atoms: _210  and  _211
REMARK   85  A    between atoms: _210  and  _213
REMARK   86  A    between atoms: _216  and  _218
REMARK   87  A    between atoms: _218  and  _219
REMARK   88  A    between atoms: _218  and  _221
REMARK   89  A    between atoms: _221  and  _222
REMARK   90  A    between atoms: _222  and  _223
REMARK   91  A    between atoms: _226  and  _228
REMARK   92  A    between atoms: _228  and  _229
REMARK   93  A    between atoms: _228  and  _231
REMARK   94  A    between atoms: _234  and  _236
REMARK   95  A    between atoms: _236  and  _237
REMARK   96  A    between atoms: _236  and  _239
REMARK   97  A    between atoms: _239  and  _240
REMARK   98  A    between atoms: _243  and  _245
REMARK   99  A    between atoms: _245  and  _246
REMARK  100  A    between atoms: _245  and  _248
REMARK  101  A    between atoms: _250  and  _252
REMARK  102  A    between atoms: _252  and  _253
REMARK  103  A    between atoms: _252  and  _255
REMARK  104  A    between atoms: _255  and  _256
REMARK  105  A    between atoms: _260  and  _261
REMARK  106  A    between atoms: _266  and  _268
REMARK  107  A    between atoms: _268  and  _269
REMARK  108  A    between atoms: _268  and  _271
REMARK  109  A    between atoms: _271  and  _272
REMARK  110  A    between atoms: _272  and  _273
REMARK  111  A    between atoms: _273  and  _274
REMARK  112  A    between atoms: _274  and  _275
REMARK  113  A    between atoms: _279  and  _281
REMARK  114  A    between atoms: _281  and  _282
REMARK  115  A    between atoms: _281  and  _284
REMARK  116  A    between atoms: _284  and  _285
REMARK  117  A    between atoms: _288  and  _290
REMARK  118  A    between atoms: _290  and  _291
REMARK  119  A    between atoms: _290  and  _293
REMARK  120  A    between atoms: _293  and  _294
REMARK  121  A    between atoms: _299  and  _301
REMARK  122  A    between atoms: _301  and  _302
REMARK  123  A    between atoms: _305  and  _307
REMARK  124  A    between atoms: _307  and  _308
REMARK  125  A    between atoms: _307  and  _310
REMARK  126  A    between atoms: _310  and  _311
REMARK  127  A    between atoms: _316  and  _317
REMARK  128  A    between atoms: _319  and  _321
REMARK  129  A    between atoms: _321  and  _322
REMARK  130  A    between atoms: _321  and  _324
REMARK  131  A    between atoms: _324  and  _325
REMARK  132  A    between atoms: _328  and  _330
REMARK  133  A    between atoms: _330  and  _331
REMARK  134  A    between atoms: _334  and  _336
REMARK  135  A    between atoms: _336  and  _337
REMARK  136  A    between atoms: _336  and  _339
REMARK  137  A    between atoms: _339  and  _340
REMARK  138  A    between atoms: _340  and  _341
REMARK  139  A    between atoms: _341  and  _342
REMARK  140  A    between atoms: _351  and  _353
REMARK  141  A    between atoms: _353  and  _354
REMARK  142  A    between atoms: _353  and  _356
REMARK  143  A    between atoms: _356  and  _357
REMARK  144  A    between atoms: _362  and  _364
REMARK  145  A    between atoms: _364  and  _365
REMARK  146  A    between atoms: _364  and  _367
REMARK  147  A    between atoms: _367  and  _368
REMARK  148  A    between atoms: _374  and  _376
REMARK  149  A    between atoms: _376  and  _377
REMARK  150  A    between atoms: _376  and  _379
REMARK  151  A    between atoms: _379  and  _380
REMARK  152  A    between atoms: _384  and  _385
REMARK  153  A    between atoms: _390  and  _392
REMARK  154  A    between atoms: _392  and  _393
REMARK  155  A    between atoms: _392  and  _395
REMARK  156  A    between atoms: _395  and  _396
REMARK  157  A    between atoms: _399  and  _401
REMARK  158  A    between atoms: _401  and  _402
REMARK  159  A    between atoms: _401  and  _404
REMARK  160  A    between atoms: _407  and  _409
REMARK  161  A    between atoms: _409  and  _410
REMARK  162  A    between atoms: _409  and  _412
REMARK  163  A    between atoms: _412  and  _413
REMARK  164  A    between atoms: _418  and  _420
REMARK  165  A    between atoms: _420  and  _421
REMARK  166  A    between atoms: _420  and  _423
REMARK  167  A    between atoms: _423  and  _424
REMARK  168  A    between atoms: _427  and  _429
REMARK  169  A    between atoms: _429  and  _430
REMARK  170  A    between atoms: _429  and  _432
REMARK  171  A    between atoms: _432  and  _433
REMARK  172  A    between atoms: _435  and  _437
REMARK  173  A    between atoms: _437  and  _438
REMARK  174  A    between atoms: _437  and  _440
REMARK  175  A    between atoms: _440  and  _441
REMARK  176  A    between atoms: _447  and  _449
REMARK  177  A    between atoms: _449  and  _450
REMARK  178  A    between atoms: _449  and  _452
REMARK  179  A    between atoms: _452  and  _453
REMARK  180  A    between atoms: _458  and  _460
REMARK  181  A    between atoms: _460  and  _461
REMARK  182  A    between atoms: _460  and  _463
REMARK  183  A    between atoms: _463  and  _464
REMARK  184  A    between atoms: _467  and  _469
REMARK  185  A    between atoms: _469  and  _470
REMARK  186  A    between atoms: _472  and  _474
REMARK  187  A    between atoms: _474  and  _475
REMARK  188  A    between atoms: _474  and  _477
REMARK  189  A    between atoms: _477  and  _478
REMARK  190  A    between atoms: _478  and  _479
REMARK  191  A    between atoms: _484  and  _486
REMARK  192  A    between atoms: _486  and  _487
REMARK  193  A    between atoms: _490  and  _492
REMARK  194  A    between atoms: _492  and  _493
REMARK  195  A    between atoms: _492  and  _495
REMARK  196  A    between atoms: _495  and  _496
REMARK  197  A    between atoms: _499  and  _501
REMARK  198  A    between atoms: _501  and  _502
REMARK  199  A    between atoms: _505  and  _507
REMARK  200  A    between atoms: _507  and  _508
REMARK  201  A    between atoms: _507  and  _510
REMARK  202  A    between atoms: _510  and  _511
REMARK  203  A    between atoms: _516  and  _518
REMARK  204  A    between atoms: _518  and  _519
REMARK  205  A    between atoms: _518  and  _521
REMARK  206  A    between atoms: _521  and  _522
REMARK  207  A    between atoms: _527  and  _528
REMARK  208  A    between atoms: _530  and  _532
REMARK  209  A    between atoms: _532  and  _533
REMARK  210  A    between atoms: _532  and  _535
REMARK  211  A    between atoms: _535  and  _536
REMARK  212  A    between atoms: _539  and  _541
REMARK  213  A    between atoms: _541  and  _542
REMARK  214  A    between atoms: _541  and  _544
REMARK  215  A    between atoms: _544  and  _545
REMARK  216  A    between atoms: _547  and  _549
REMARK  217  A    between atoms: _549  and  _550
REMARK  218  A    between atoms: _549  and  _552
REMARK  219  A    between atoms: _552  and  _553
REMARK  220  A    between atoms: _559  and  _561
REMARK  221  A    between atoms: _561  and  _562
REMARK  222  A    between atoms: _561  and  _564
REMARK  223  A    between atoms: _564  and  _565
REMARK  224  A    between atoms: _565  and  _566
REMARK  225  A    between atoms: _569  and  _571
REMARK  226  A    between atoms: _571  and  _572
REMARK  227  A    between atoms: _571  and  _574
REMARK  228  A    between atoms: _574  and  _575
REMARK  229  A    between atoms: _575  and  _576
REMARK  230  A    between atoms: _576  and  _577
REMARK  231  A    between atoms: _577  and  _578
REMARK  232  A    between atoms: _582  and  _584
REMARK  233  A    between atoms: _584  and  _585
REMARK  234  A    between atoms: _584  and  _587
REMARK  235  A    between atoms: _587  and  _588
REMARK  236  A    between atoms: _590  and  _592
REMARK  237  A    between atoms: _592  and  _593
REMARK  238  A    between atoms: _592  and  _595
REMARK  239  A    between atoms: _595  and  _596
REMARK  240  A    between atoms: _596  and  _597
REMARK  241  A    between atoms: _597  and  _598
REMARK                            x       y       z     vdW  Elec       q    Type
REMARK                         _______ _______ _______ _____ _____    ______ ____
ROOT
ATOM      1  O   HOH     1       7.013  33.764  14.413  0.00  0.00    +0.000 OA
ENDROOT
TORSDOF 0
REMARK  Name = ../refined-set-2016/3wgg/3wgg_pocket.pdb
REMARK  241 active torsions:
REMARK  status: ('A' for Active; 'I' for Inactive)
REMARK    1  A    between atoms: _1  and  _3
REMARK    2  A    between atoms: _3  and  _4
REMARK    3  A    between atoms: _3  and  _6
REMARK    4  A    between atoms: _6  and  _7
REMARK    5  A    between atoms: _10  and  _12
REMARK    6  A    between atoms: _12  and  _13
REMARK    7  A    between atoms: _12  and  _15
REMARK    8  A    between atoms: _15  and  _16
REMARK    9  A    between atoms: _19  and  _21
REMARK   10  A    between atoms: _21  and  _22
REMARK   11  A    between atoms: _24  and  _26
REMARK   12  A    between atoms: _26  and  _27
REMARK   13  A    between atoms: _30  and  _32
REMARK   14  A    between atoms: _32  and  _33
REMARK   15  A    between atoms: _35  and  _37
REMARK   16  A    between atoms: _37  and  _38
REMARK   17  A    between atoms: _37  and  _40
REMARK   18  A    between atoms: _40  and  _41
REMARK   19  A    between atoms: _46  and  _48
REMARK   20  A    between atoms: _48  and  _49
REMARK   21  A    between atoms: _48  and  _51
REMARK   22  A    between atoms: _51  and  _52
REMARK   23  A    between atoms: _55  and  _57
REMARK   24  A    between atoms: _57  and  _58
REMARK   25  A    between atoms: _60  and  _62
REMARK   26  A    between atoms: _62  and  _63
REMARK   27  A    between atoms: _62  and  _65
REMARK   28  A    between atoms: _65  and  _66
REMARK   29  A    between atoms: _66  and  _67
REMARK   30  A    between atoms: _72  and  _74
REMARK   31  A    between atoms: _74  and  _75
REMARK   32  A    between atoms: _78  and  _80
REMARK   33  A    between atoms: _80  and  _81
REMARK   34  A    between atoms: _80  and  _83
REMARK   35  A    between atoms: _83  and  _84
REMARK   36  A    between atoms: _87  and  _89
REMARK   37  A    between atoms: _89  and  _90
REMARK   38  A    between atoms: _89  and  _92
REMARK   39  A    between atoms: _92  and  _93
REMARK   40  A    between atoms: _96  and  _98
REMARK   41  A    between atoms: _98  and  _99
REMARK   42  A    between atoms: _98  and  _101
REMARK   43  A    between atoms: _101  and  _102
REMARK   44  A    between atoms: _108  and  _110
REMARK   45  A    between atoms: _110  and  _111
REMARK   46  A    between atoms: _110  and  _113
REMARK   47  A    between atoms: _113  and  _114
REMARK   48  A    between atoms: _117  and  _119
REMARK   49  A    between atoms: _119  and  _120
REMARK   50  A    between atoms: _119  and  _122
REMARK   51  A    between atoms: _122  and  _123
REMARK   52  A    between atoms: _126  and  _128
REMARK   53  A    between atoms: _128  and  _129
REMARK   54  A    between atoms: _128  and  _131
REMARK   55  A    between atoms: _131  and  _132
REMARK   56  A    between atoms: _138  and  _139
REMARK   57  A    between atoms: _144  and  _146
REMARK   58  A    between atoms: _146  and  _147
REMARK   59  A    between atoms: _146  and  _149
REMARK   60  A    between atoms: _149  and  _150
REMARK   61  A    between atoms: _150  and  _151
REMARK   62  A    between atoms: _151  and  _152
REMARK   63  A    between atoms: _161  and  _163
REMARK   64  A    between atoms: _163  and  _164
REMARK   65  A    between atoms: _163  and  _166
REMARK   66  A    between atoms: _166  and  _167
REMARK   67  A    between atoms: _170  and  _172
REMARK   68  A    between atoms: _172  and  _173
REMARK   69  A    between atoms: _172  and  _175
REMARK   70  A    between atoms: _175  and  _176
REMARK   71  A    between atoms: _182  and  _184
REMARK   72  A    between atoms: _184  and  _185
REMARK   73  A    between atoms: _184  and  _187
REMARK   74  A    between atoms: _190  and  _192
REMARK   75  A    between atoms: _192  and  _193
REMARK   76  A    between atoms: _192  and  _195
REMARK   77  A    between atoms: _195  and  _196
REMARK   78  A    between atoms: _196  and  _197
REMARK   79  A    between atoms: _199  and  _201
REMARK   80  A    between atoms: _201  and  _202
REMARK   81  A    between atoms: _201  and  _204
REMARK   82  A    between atoms: _204  and  _205
REMARK   83  A    between atoms: _208  and  _210
REMARK   84  A    between atoms: _210  and  _211
REMARK   85  A    between atoms: _210  and  _213
REMARK   86  A    between atoms: _216  and  _218
REMARK   87  A    between atoms: _218  and  _219
REMARK   88  A    between atoms: _218  and  _221
REMARK   89  A    between atoms: _221  and  _222
REMARK   90  A    between atoms: _222  and  _223
REMARK   91  A    between atoms: _226  and  _228
REMARK   92  A    between atoms: _228  and  _229
REMARK   93  A    between atoms: _228  and  _231
REMARK   94  A    between atoms: _234  and  _236
REMARK   95  A    between atoms: _236  and  _237
REMARK   96  A    between atoms: _236  and  _239
REMARK   97  A    between atoms: _239  and  _240
REMARK   98  A    between atoms: _243  and  _245
REMARK   99  A    between atoms: _245  and  _246
REMARK  100  A    between atoms: _245  and  _248
REMARK  101  A    between atoms: _250  and  _252
REMARK  102  A    between atoms: _252  and  _253
REMARK  103  A    between atoms: _252  and  _255
REMARK  104  A    between atoms: _255  and  _256
REMARK  105  A    between atoms: _260  and  _261
REMARK  106  A    between atoms: _266  and  _268
REMARK  107  A    between atoms: _268  and  _269
REMARK  108  A    between atoms: _268  and  _271
REMARK  109  A    between atoms: _271  and  _272
REMARK  110  A    between atoms: _272  and  _273
REMARK  111  A    between atoms: _273  and  _274
REMARK  112  A    between atoms: _274  and  _275
REMARK  113  A    between atoms: _279  and  _281
REMARK  114  A    between atoms: _281  and  _282
REMARK  115  A    between atoms: _281  and  _284
REMARK  116  A    between atoms: _284  and  _285
REMARK  117  A    between atoms: _288  and  _290
REMARK  118  A    between atoms: _290  and  _291
REMARK  119  A    between atoms: _290  and  _293
REMARK  120  A    between atoms: _293  and  _294
REMARK  121  A    between atoms: _299  and  _301
REMARK  122  A    between atoms: _301  and  _302
REMARK  123  A    between atoms: _305  and  _307
REMARK  124  A    between atoms: _307  and  _308
REMARK  125  A    between atoms: _307  and  _310
REMARK  126  A    between atoms: _310  and  _311
REMARK  127  A    between atoms: _316  and  _317
REMARK  128  A    between atoms: _319  and  _321
REMARK  129  A    between atoms: _321  and  _322
REMARK  130  A    between atoms: _321  and  _324
REMARK  131  A    between atoms: _324  and  _325
REMARK  132  A    between atoms: _328  and  _330
REMARK  133  A    between atoms: _330  and  _331
REMARK  134  A    between atoms: _334  and  _336
REMARK  135  A    between atoms: _336  and  _337
REMARK  136  A    between atoms: _336  and  _339
REMARK  137  A    between atoms: _339  and  _340
REMARK  138  A    between atoms: _340  and  _341
REMARK  139  A    between atoms: _341  and  _342
REMARK  140  A    between atoms: _351  and  _353
REMARK  141  A    between atoms: _353  and  _354
REMARK  142  A    between atoms: _353  and  _356
REMARK  143  A    between atoms: _356  and  _357
REMARK  144  A    between atoms: _362  and  _364
REMARK  145  A    between atoms: _364  and  _365
REMARK  146  A    between atoms: _364  and  _367
REMARK  147  A    between atoms: _367  and  _368
REMARK  148  A    between atoms: _374  and  _376
REMARK  149  A    between atoms: _376  and  _377
REMARK  150  A    between atoms: _376  and  _379
REMARK  151  A    between atoms: _379  and  _380
REMARK  152  A    between atoms: _384  and  _385
REMARK  153  A    between atoms: _390  and  _392
REMARK  154  A    between atoms: _392  and  _393
REMARK  155  A    between atoms: _392  and  _395
REMARK  156  A    between atoms: _395  and  _396
REMARK  157  A    between atoms: _399  and  _401
REMARK  158  A    between atoms: _401  and  _402
REMARK  159  A    between atoms: _401  and  _404
REMARK  160  A    between atoms: _407  and  _409
REMARK  161  A    between atoms: _409  and  _410
REMARK  162  A    between atoms: _409  and  _412
REMARK  163  A    between atoms: _412  and  _413
REMARK  164  A    between atoms: _418  and  _420
REMARK  165  A    between atoms: _420  and  _421
REMARK  166  A    between atoms: _420  and  _423
REMARK  167  A    between atoms: _423  and  _424
REMARK  168  A    between atoms: _427  and  _429
REMARK  169  A    between atoms: _429  and  _430
REMARK  170  A    between atoms: _429  and  _432
REMARK  171  A    between atoms: _432  and  _433
REMARK  172  A    between atoms: _435  and  _437
REMARK  173  A    between atoms: _437  and  _438
REMARK  174  A    between atoms: _437  and  _440
REMARK  175  A    between atoms: _440  and  _441
REMARK  176  A    between atoms: _447  and  _449
REMARK  177  A    between atoms: _449  and  _450
REMARK  178  A    between atoms: _449  and  _452
REMARK  179  A    between atoms: _452  and  _453
REMARK  180  A    between atoms: _458  and  _460
REMARK  181  A    between atoms: _460  and  _461
REMARK  182  A    between atoms: _460  and  _463
REMARK  183  A    between atoms: _463  and  _464
REMARK  184  A    between atoms: _467  and  _469
REMARK  185  A    between atoms: _469  and  _470
REMARK  186  A    between atoms: _472  and  _474
REMARK  187  A    between atoms: _474  and  _475
REMARK  188  A    between atoms: _474  and  _477
REMARK  189  A    between atoms: _477  and  _478
REMARK  190  A    between atoms: _478  and  _479
REMARK  191  A    between atoms: _484  and  _486
REMARK  192  A    between atoms: _486  and  _487
REMARK  193  A    between atoms: _490  and  _492
REMARK  194  A    between atoms: _492  and  _493
REMARK  195  A    between atoms: _492  and  _495
REMARK  196  A    between atoms: _495  and  _496
REMARK  197  A    between atoms: _499  and  _501
REMARK  198  A    between atoms: _501  and  _502
REMARK  199  A    between atoms: _505  and  _507
REMARK  200  A    between atoms: _507  and  _508
REMARK  201  A    between atoms: _507  and  _510
REMARK  202  A    between atoms: _510  and  _511
REMARK  203  A    between atoms: _516  and  _518
REMARK  204  A    between atoms: _518  and  _519
REMARK  205  A    between atoms: _518  and  _521
REMARK  206  A    between atoms: _521  and  _522
REMARK  207  A    between atoms: _527  and  _528
REMARK  208  A    between atoms: _530  and  _532
REMARK  209  A    between atoms: _532  and  _533
REMARK  210  A    between atoms: _532  and  _535
REMARK  211  A    between atoms: _535  and  _536
REMARK  212  A    between atoms: _539  and  _541
REMARK  213  A    between atoms: _541  and  _542
REMARK  214  A    between atoms: _541  and  _544
REMARK  215  A    between atoms: _544  and  _545
REMARK  216  A    between atoms: _547  and  _549
REMARK  217  A    between atoms: _549  and  _550
REMARK  218  A    between atoms: _549  and  _552
REMARK  219  A    between atoms: _552  and  _553
REMARK  220  A    between atoms: _559  and  _561
REMARK  221  A    between atoms: _561  and  _562
REMARK  222  A    between atoms: _561  and  _564
REMARK  223  A    between atoms: _564  and  _565
REMARK  224  A    between atoms: _565  and  _566
REMARK  225  A    between atoms: _569  and  _571
REMARK  226  A    between atoms: _571  and  _572
REMARK  227  A    between atoms: _571  and  _574
REMARK  228  A    between atoms: _574  and  _575
REMARK  229  A    between atoms: _575  and  _576
REMARK  230  A    between atoms: _576  and  _577
REMARK  231  A    between atoms: _577  and  _578
REMARK  232  A    between atoms: _582  and  _584
REMARK  233  A    between atoms: _584  and  _585
REMARK  234  A    between atoms: _584  and  _587
REMARK  235  A    between atoms: _587  and  _588
REMARK  236  A    between atoms: _590  and  _592
REMARK  237  A    between atoms: _592  and  _593
REMARK  238  A    between atoms: _592  and  _595
REMARK  239  A    between atoms: _595  and  _596
REMARK  240  A    between atoms: _596  and  _597
REMARK  241  A    between atoms: _597  and  _598
REMARK                            x       y       z     vdW  Elec       q    Type
REMARK                         _______ _______ _______ _____ _____    ______ ____
ROOT
ATOM      1  O   HOH     1      14.783  31.109  22.890  0.00  0.00    +0.000 OA
ENDROOT
TORSDOF 0
REMARK  Name = ../refined-set-2016/3wgg/3wgg_pocket.pdb
REMARK  241 active torsions:
REMARK  status: ('A' for Active; 'I' for Inactive)
REMARK    1  A    between atoms: _1  and  _3
REMARK    2  A    between atoms: _3  and  _4
REMARK    3  A    between atoms: _3  and  _6
REMARK    4  A    between atoms: _6  and  _7
REMARK    5  A    between atoms: _10  and  _12
REMARK    6  A    between atoms: _12  and  _13
REMARK    7  A    between atoms: _12  and  _15
REMARK    8  A    between atoms: _15  and  _16
REMARK    9  A    between atoms: _19  and  _21
REMARK   10  A    between atoms: _21  and  _22
REMARK   11  A    between atoms: _24  and  _26
REMARK   12  A    between atoms: _26  and  _27
REMARK   13  A    between atoms: _30  and  _32
REMARK   14  A    between atoms: _32  and  _33
REMARK   15  A    between atoms: _35  and  _37
REMARK   16  A    between atoms: _37  and  _38
REMARK   17  A    between atoms: _37  and  _40
REMARK   18  A    between atoms: _40  and  _41
REMARK   19  A    between atoms: _46  and  _48
REMARK   20  A    between atoms: _48  and  _49
REMARK   21  A    between atoms: _48  and  _51
REMARK   22  A    between atoms: _51  and  _52
REMARK   23  A    between atoms: _55  and  _57
REMARK   24  A    between atoms: _57  and  _58
REMARK   25  A    between atoms: _60  and  _62
REMARK   26  A    between atoms: _62  and  _63
REMARK   27  A    between atoms: _62  and  _65
REMARK   28  A    between atoms: _65  and  _66
REMARK   29  A    between atoms: _66  and  _67
REMARK   30  A    between atoms: _72  and  _74
REMARK   31  A    between atoms: _74  and  _75
REMARK   32  A    between atoms: _78  and  _80
REMARK   33  A    between atoms: _80  and  _81
REMARK   34  A    between atoms: _80  and  _83
REMARK   35  A    between atoms: _83  and  _84
REMARK   36  A    between atoms: _87  and  _89
REMARK   37  A    between atoms: _89  and  _90
REMARK   38  A    between atoms: _89  and  _92
REMARK   39  A    between atoms: _92  and  _93
REMARK   40  A    between atoms: _96  and  _98
REMARK   41  A    between atoms: _98  and  _99
REMARK   42  A    between atoms: _98  and  _101
REMARK   43  A    between atoms: _101  and  _102
REMARK   44  A    between atoms: _108  and  _110
REMARK   45  A    between atoms: _110  and  _111
REMARK   46  A    between atoms: _110  and  _113
REMARK   47  A    between atoms: _113  and  _114
REMARK   48  A    between atoms: _117  and  _119
REMARK   49  A    between atoms: _119  and  _120
REMARK   50  A    between atoms: _119  and  _122
REMARK   51  A    between atoms: _122  and  _123
REMARK   52  A    between atoms: _126  and  _128
REMARK   53  A    between atoms: _128  and  _129
REMARK   54  A    between atoms: _128  and  _131
REMARK   55  A    between atoms: _131  and  _132
REMARK   56  A    between atoms: _138  and  _139
REMARK   57  A    between atoms: _144  and  _146
REMARK   58  A    between atoms: _146  and  _147
REMARK   59  A    between atoms: _146  and  _149
REMARK   60  A    between atoms: _149  and  _150
REMARK   61  A    between atoms: _150  and  _151
REMARK   62  A    between atoms: _151  and  _152
REMARK   63  A    between atoms: _161  and  _163
REMARK   64  A    between atoms: _163  and  _164
REMARK   65  A    between atoms: _163  and  _166
REMARK   66  A    between atoms: _166  and  _167
REMARK   67  A    between atoms: _170  and  _172
REMARK   68  A    between atoms: _172  and  _173
REMARK   69  A    between atoms: _172  and  _175
REMARK   70  A    between atoms: _175  and  _176
REMARK   71  A    between atoms: _182  and  _184
REMARK   72  A    between atoms: _184  and  _185
REMARK   73  A    between atoms: _184  and  _187
REMARK   74  A    between atoms: _190  and  _192
REMARK   75  A    between atoms: _192  and  _193
REMARK   76  A    between atoms: _192  and  _195
REMARK   77  A    between atoms: _195  and  _196
REMARK   78  A    between atoms: _196  and  _197
REMARK   79  A    between atoms: _199  and  _201
REMARK   80  A    between atoms: _201  and  _202
REMARK   81  A    between atoms: _201  and  _204
REMARK   82  A    between atoms: _204  and  _205
REMARK   83  A    between atoms: _208  and  _210
REMARK   84  A    between atoms: _210  and  _211
REMARK   85  A    between atoms: _210  and  _213
REMARK   86  A    between atoms: _216  and  _218
REMARK   87  A    between atoms: _218  and  _219
REMARK   88  A    between atoms: _218  and  _221
REMARK   89  A    between atoms: _221  and  _222
REMARK   90  A    between atoms: _222  and  _223
REMARK   91  A    between atoms: _226  and  _228
REMARK   92  A    between atoms: _228  and  _229
REMARK   93  A    between atoms: _228  and  _231
REMARK   94  A    between atoms: _234  and  _236
REMARK   95  A    between atoms: _236  and  _237
REMARK   96  A    between atoms: _236  and  _239
REMARK   97  A    between atoms: _239  and  _240
REMARK   98  A    between atoms: _243  and  _245
REMARK   99  A    between atoms: _245  and  _246
REMARK  100  A    between atoms: _245  and  _248
REMARK  101  A    between atoms: _250  and  _252
REMARK  102  A    between atoms: _252  and  _253
REMARK  103  A    between atoms: _252  and  _255
REMARK  104  A    between atoms: _255  and  _256
REMARK  105  A    between atoms: _260  and  _261
REMARK  106  A    between atoms: _266  and  _268
REMARK  107  A    between atoms: _268  and  _269
REMARK  108  A    between atoms: _268  and  _271
REMARK  109  A    between atoms: _271  and  _272
REMARK  110  A    between atoms: _272  and  _273
REMARK  111  A    between atoms: _273  and  _274
REMARK  112  A    between atoms: _274  and  _275
REMARK  113  A    between atoms: _279  and  _281
REMARK  114  A    between atoms: _281  and  _282
REMARK  115  A    between atoms: _281  and  _284
REMARK  116  A    between atoms: _284  and  _285
REMARK  117  A    between atoms: _288  and  _290
REMARK  118  A    between atoms: _290  and  _291
REMARK  119  A    between atoms: _290  and  _293
REMARK  120  A    between atoms: _293  and  _294
REMARK  121  A    between atoms: _299  and  _301
REMARK  122  A    between atoms: _301  and  _302
REMARK  123  A    between atoms: _305  and  _307
REMARK  124  A    between atoms: _307  and  _308
REMARK  125  A    between atoms: _307  and  _310
REMARK  126  A    between atoms: _310  and  _311
REMARK  127  A    between atoms: _316  and  _317
REMARK  128  A    between atoms: _319  and  _321
REMARK  129  A    between atoms: _321  and  _322
REMARK  130  A    between atoms: _321  and  _324
REMARK  131  A    between atoms: _324  and  _325
REMARK  132  A    between atoms: _328  and  _330
REMARK  133  A    between atoms: _330  and  _331
REMARK  134  A    between atoms: _334  and  _336
REMARK  135  A    between atoms: _336  and  _337
REMARK  136  A    between atoms: _336  and  _339
REMARK  137  A    between atoms: _339  and  _340
REMARK  138  A    between atoms: _340  and  _341
REMARK  139  A    between atoms: _341  and  _342
REMARK  140  A    between atoms: _351  and  _353
REMARK  141  A    between atoms: _353  and  _354
REMARK  142  A    between atoms: _353  and  _356
REMARK  143  A    between atoms: _356  and  _357
REMARK  144  A    between atoms: _362  and  _364
REMARK  145  A    between atoms: _364  and  _365
REMARK  146  A    between atoms: _364  and  _367
REMARK  147  A    between atoms: _367  and  _368
REMARK  148  A    between atoms: _374  and  _376
REMARK  149  A    between atoms: _376  and  _377
REMARK  150  A    between atoms: _376  and  _379
REMARK  151  A    between atoms: _379  and  _380
REMARK  152  A    between atoms: _384  and  _385
REMARK  153  A    between atoms: _390  and  _392
REMARK  154  A    between atoms: _392  and  _393
REMARK  155  A    between atoms: _392  and  _395
REMARK  156  A    between atoms: _395  and  _396
REMARK  157  A    between atoms: _399  and  _401
REMARK  158  A    between atoms: _401  and  _402
REMARK  159  A    between atoms: _401  and  _404
REMARK  160  A    between atoms: _407  and  _409
REMARK  161  A    between atoms: _409  and  _410
REMARK  162  A    between atoms: _409  and  _412
REMARK  163  A    between atoms: _412  and  _413
REMARK  164  A    between atoms: _418  and  _420
REMARK  165  A    between atoms: _420  and  _421
REMARK  166  A    between atoms: _420  and  _423
REMARK  167  A    between atoms: _423  and  _424
REMARK  168  A    between atoms: _427  and  _429
REMARK  169  A    between atoms: _429  and  _430
REMARK  170  A    between atoms: _429  and  _432
REMARK  171  A    between atoms: _432  and  _433
REMARK  172  A    between atoms: _435  and  _437
REMARK  173  A    between atoms: _437  and  _438
REMARK  174  A    between atoms: _437  and  _440
REMARK  175  A    between atoms: _440  and  _441
REMARK  176  A    between atoms: _447  and  _449
REMARK  177  A    between atoms: _449  and  _450
REMARK  178  A    between atoms: _449  and  _452
REMARK  179  A    between atoms: _452  and  _453
REMARK  180  A    between atoms: _458  and  _460
REMARK  181  A    between atoms: _460  and  _461
REMARK  182  A    between atoms: _460  and  _463
REMARK  183  A    between atoms: _463  and  _464
REMARK  184  A    between atoms: _467  and  _469
REMARK  185  A    between atoms: _469  and  _470
REMARK  186  A    between atoms: _472  and  _474
REMARK  187  A    between atoms: _474  and  _475
REMARK  188  A    between atoms: _474  and  _477
REMARK  189  A    between atoms: _477  and  _478
REMARK  190  A    between atoms: _478  and  _479
REMARK  191  A    between atoms: _484  and  _486
REMARK  192  A    between atoms: _486  and  _487
REMARK  193  A    between atoms: _490  and  _492
REMARK  194  A    between atoms: _492  and  _493
REMARK  195  A    between atoms: _492  and  _495
REMARK  196  A    between atoms: _495  and  _496
REMARK  197  A    between atoms: _499  and  _501
REMARK  198  A    between atoms: _501  and  _502
REMARK  199  A    between atoms: _505  and  _507
REMARK  200  A    between atoms: _507  and  _508
REMARK  201  A    between atoms: _507  and  _510
REMARK  202  A    between atoms: _510  and  _511
REMARK  203  A    between atoms: _516  and  _518
REMARK  204  A    between atoms: _518  and  _519
REMARK  205  A    between atoms: _518  and  _521
REMARK  206  A    between atoms: _521  and  _522
REMARK  207  A    between atoms: _527  and  _528
REMARK  208  A    between atoms: _530  and  _532
REMARK  209  A    between atoms: _532  and  _533
REMARK  210  A    between atoms: _532  and  _535
REMARK  211  A    between atoms: _535  and  _536
REMARK  212  A    between atoms: _539  and  _541
REMARK  213  A    between atoms: _541  and  _542
REMARK  214  A    between atoms: _541  and  _544
REMARK  215  A    between atoms: _544  and  _545
REMARK  216  A    between atoms: _547  and  _549
REMARK  217  A    between atoms: _549  and  _550
REMARK  218  A    between atoms: _549  and  _552
REMARK  219  A    between atoms: _552  and  _553
REMARK  220  A    between atoms: _559  and  _561
REMARK  221  A    between atoms: _561  and  _562
REMARK  222  A    between atoms: _561  and  _564
REMARK  223  A    between atoms: _564  and  _565
REMARK  224  A    between atoms: _565  and  _566
REMARK  225  A    between atoms: _569  and  _571
REMARK  226  A    between atoms: _571  and  _572
REMARK  227  A    between atoms: _571  and  _574
REMARK  228  A    between atoms: _574  and  _575
REMARK  229  A    between atoms: _575  and  _576
REMARK  230  A    between atoms: _576  and  _577
REMARK  231  A    between atoms: _577  and  _578
REMARK  232  A    between atoms: _582  and  _584
REMARK  233  A    between atoms: _584  and  _585
REMARK  234  A    between atoms: _584  and  _587
REMARK  235  A    between atoms: _587  and  _588
REMARK  236  A    between atoms: _590  and  _592
REMARK  237  A    between atoms: _592  and  _593
REMARK  238  A    between atoms: _592  and  _595
REMARK  239  A    between atoms: _595  and  _596
REMARK  240  A    between atoms: _596  and  _597
REMARK  241  A    between atoms: _597  and  _598
REMARK                            x       y       z     vdW  Elec       q    Type
REMARK                         _______ _______ _______ _____ _____    ______ ____
ROOT
ATOM      1  O   HOH     1       4.906  31.696  14.786  0.00  0.00    +0.000 OA
ENDROOT
TORSDOF 0
REMARK  Name = ../refined-set-2016/3wgg/3wgg_pocket.pdb
REMARK  241 active torsions:
REMARK  status: ('A' for Active; 'I' for Inactive)
REMARK    1  A    between atoms: _1  and  _3
REMARK    2  A    between atoms: _3  and  _4
REMARK    3  A    between atoms: _3  and  _6
REMARK    4  A    between atoms: _6  and  _7
REMARK    5  A    between atoms: _10  and  _12
REMARK    6  A    between atoms: _12  and  _13
REMARK    7  A    between atoms: _12  and  _15
REMARK    8  A    between atoms: _15  and  _16
REMARK    9  A    between atoms: _19  and  _21
REMARK   10  A    between atoms: _21  and  _22
REMARK   11  A    between atoms: _24  and  _26
REMARK   12  A    between atoms: _26  and  _27
REMARK   13  A    between atoms: _30  and  _32
REMARK   14  A    between atoms: _32  and  _33
REMARK   15  A    between atoms: _35  and  _37
REMARK   16  A    between atoms: _37  and  _38
REMARK   17  A    between atoms: _37  and  _40
REMARK   18  A    between atoms: _40  and  _41
REMARK   19  A    between atoms: _46  and  _48
REMARK   20  A    between atoms: _48  and  _49
REMARK   21  A    between atoms: _48  and  _51
REMARK   22  A    between atoms: _51  and  _52
REMARK   23  A    between atoms: _55  and  _57
REMARK   24  A    between atoms: _57  and  _58
REMARK   25  A    between atoms: _60  and  _62
REMARK   26  A    between atoms: _62  and  _63
REMARK   27  A    between atoms: _62  and  _65
REMARK   28  A    between atoms: _65  and  _66
REMARK   29  A    between atoms: _66  and  _67
REMARK   30  A    between atoms: _72  and  _74
REMARK   31  A    between atoms: _74  and  _75
REMARK   32  A    between atoms: _78  and  _80
REMARK   33  A    between atoms: _80  and  _81
REMARK   34  A    between atoms: _80  and  _83
REMARK   35  A    between atoms: _83  and  _84
REMARK   36  A    between atoms: _87  and  _89
REMARK   37  A    between atoms: _89  and  _90
REMARK   38  A    between atoms: _89  and  _92
REMARK   39  A    between atoms: _92  and  _93
REMARK   40  A    between atoms: _96  and  _98
REMARK   41  A    between atoms: _98  and  _99
REMARK   42  A    between atoms: _98  and  _101
REMARK   43  A    between atoms: _101  and  _102
REMARK   44  A    between atoms: _108  and  _110
REMARK   45  A    between atoms: _110  and  _111
REMARK   46  A    between atoms: _110  and  _113
REMARK   47  A    between atoms: _113  and  _114
REMARK   48  A    between atoms: _117  and  _119
REMARK   49  A    between atoms: _119  and  _120
REMARK   50  A    between atoms: _119  and  _122
REMARK   51  A    between atoms: _122  and  _123
REMARK   52  A    between atoms: _126  and  _128
REMARK   53  A    between atoms: _128  and  _129
REMARK   54  A    between atoms: _128  and  _131
REMARK   55  A    between atoms: _131  and  _132
REMARK   56  A    between atoms: _138  and  _139
REMARK   57  A    between atoms: _144  and  _146
REMARK   58  A    between atoms: _146  and  _147
REMARK   59  A    between atoms: _146  and  _149
REMARK   60  A    between atoms: _149  and  _150
REMARK   61  A    between atoms: _150  and  _151
REMARK   62  A    between atoms: _151  and  _152
REMARK   63  A    between atoms: _161  and  _163
REMARK   64  A    between atoms: _163  and  _164
REMARK   65  A    between atoms: _163  and  _166
REMARK   66  A    between atoms: _166  and  _167
REMARK   67  A    between atoms: _170  and  _172
REMARK   68  A    between atoms: _172  and  _173
REMARK   69  A    between atoms: _172  and  _175
REMARK   70  A    between atoms: _175  and  _176
REMARK   71  A    between atoms: _182  and  _184
REMARK   72  A    between atoms: _184  and  _185
REMARK   73  A    between atoms: _184  and  _187
REMARK   74  A    between atoms: _190  and  _192
REMARK   75  A    between atoms: _192  and  _193
REMARK   76  A    between atoms: _192  and  _195
REMARK   77  A    between atoms: _195  and  _196
REMARK   78  A    between atoms: _196  and  _197
REMARK   79  A    between atoms: _199  and  _201
REMARK   80  A    between atoms: _201  and  _202
REMARK   81  A    between atoms: _201  and  _204
REMARK   82  A    between atoms: _204  and  _205
REMARK   83  A    between atoms: _208  and  _210
REMARK   84  A    between atoms: _210  and  _211
REMARK   85  A    between atoms: _210  and  _213
REMARK   86  A    between atoms: _216  and  _218
REMARK   87  A    between atoms: _218  and  _219
REMARK   88  A    between atoms: _218  and  _221
REMARK   89  A    between atoms: _221  and  _222
REMARK   90  A    between atoms: _222  and  _223
REMARK   91  A    between atoms: _226  and  _228
REMARK   92  A    between atoms: _228  and  _229
REMARK   93  A    between atoms: _228  and  _231
REMARK   94  A    between atoms: _234  and  _236
REMARK   95  A    between atoms: _236  and  _237
REMARK   96  A    between atoms: _236  and  _239
REMARK   97  A    between atoms: _239  and  _240
REMARK   98  A    between atoms: _243  and  _245
REMARK   99  A    between atoms: _245  and  _246
REMARK  100  A    between atoms: _245  and  _248
REMARK  101  A    between atoms: _250  and  _252
REMARK  102  A    between atoms: _252  and  _253
REMARK  103  A    between atoms: _252  and  _255
REMARK  104  A    between atoms: _255  and  _256
REMARK  105  A    between atoms: _260  and  _261
REMARK  106  A    between atoms: _266  and  _268
REMARK  107  A    between atoms: _268  and  _269
REMARK  108  A    between atoms: _268  and  _271
REMARK  109  A    between atoms: _271  and  _272
REMARK  110  A    between atoms: _272  and  _273
REMARK  111  A    between atoms: _273  and  _274
REMARK  112  A    between atoms: _274  and  _275
REMARK  113  A    between atoms: _279  and  _281
REMARK  114  A    between atoms: _281  and  _282
REMARK  115  A    between atoms: _281  and  _284
REMARK  116  A    between atoms: _284  and  _285
REMARK  117  A    between atoms: _288  and  _290
REMARK  118  A    between atoms: _290  and  _291
REMARK  119  A    between atoms: _290  and  _293
REMARK  120  A    between atoms: _293  and  _294
REMARK  121  A    between atoms: _299  and  _301
REMARK  122  A    between atoms: _301  and  _302
REMARK  123  A    between atoms: _305  and  _307
REMARK  124  A    between atoms: _307  and  _308
REMARK  125  A    between atoms: _307  and  _310
REMARK  126  A    between atoms: _310  and  _311
REMARK  127  A    between atoms: _316  and  _317
REMARK  128  A    between atoms: _319  and  _321
REMARK  129  A    between atoms: _321  and  _322
REMARK  130  A    between atoms: _321  and  _324
REMARK  131  A    between atoms: _324  and  _325
REMARK  132  A    between atoms: _328  and  _330
REMARK  133  A    between atoms: _330  and  _331
REMARK  134  A    between atoms: _334  and  _336
REMARK  135  A    between atoms: _336  and  _337
REMARK  136  A    between atoms: _336  and  _339
REMARK  137  A    between atoms: _339  and  _340
REMARK  138  A    between atoms: _340  and  _341
REMARK  139  A    between atoms: _341  and  _342
REMARK  140  A    between atoms: _351  and  _353
REMARK  141  A    between atoms: _353  and  _354
REMARK  142  A    between atoms: _353  and  _356
REMARK  143  A    between atoms: _356  and  _357
REMARK  144  A    between atoms: _362  and  _364
REMARK  145  A    between atoms: _364  and  _365
REMARK  146  A    between atoms: _364  and  _367
REMARK  147  A    between atoms: _367  and  _368
REMARK  148  A    between atoms: _374  and  _376
REMARK  149  A    between atoms: _376  and  _377
REMARK  150  A    between atoms: _376  and  _379
REMARK  151  A    between atoms: _379  and  _380
REMARK  152  A    between atoms: _384  and  _385
REMARK  153  A    between atoms: _390  and  _392
REMARK  154  A    between atoms: _392  and  _393
REMARK  155  A    between atoms: _392  and  _395
REMARK  156  A    between atoms: _395  and  _396
REMARK  157  A    between atoms: _399  and  _401
REMARK  158  A    between atoms: _401  and  _402
REMARK  159  A    between atoms: _401  and  _404
REMARK  160  A    between atoms: _407  and  _409
REMARK  161  A    between atoms: _409  and  _410
REMARK  162  A    between atoms: _409  and  _412
REMARK  163  A    between atoms: _412  and  _413
REMARK  164  A    between atoms: _418  and  _420
REMARK  165  A    between atoms: _420  and  _421
REMARK  166  A    between atoms: _420  and  _423
REMARK  167  A    between atoms: _423  and  _424
REMARK  168  A    between atoms: _427  and  _429
REMARK  169  A    between atoms: _429  and  _430
REMARK  170  A    between atoms: _429  and  _432
REMARK  171  A    between atoms: _432  and  _433
REMARK  172  A    between atoms: _435  and  _437
REMARK  173  A    between atoms: _437  and  _438
REMARK  174  A    between atoms: _437  and  _440
REMARK  175  A    between atoms: _440  and  _441
REMARK  176  A    between atoms: _447  and  _449
REMARK  177  A    between atoms: _449  and  _450
REMARK  178  A    between atoms: _449  and  _452
REMARK  179  A    between atoms: _452  and  _453
REMARK  180  A    between atoms: _458  and  _460
REMARK  181  A    between atoms: _460  and  _461
REMARK  182  A    between atoms: _460  and  _463
REMARK  183  A    between atoms: _463  and  _464
REMARK  184  A    between atoms: _467  and  _469
REMARK  185  A    between atoms: _469  and  _470
REMARK  186  A    between atoms: _472  and  _474
REMARK  187  A    between atoms: _474  and  _475
REMARK  188  A    between atoms: _474  and  _477
REMARK  189  A    between atoms: _477  and  _478
REMARK  190  A    between atoms: _478  and  _479
REMARK  191  A    between atoms: _484  and  _486
REMARK  192  A    between atoms: _486  and  _487
REMARK  193  A    between atoms: _490  and  _492
REMARK  194  A    between atoms: _492  and  _493
REMARK  195  A    between atoms: _492  and  _495
REMARK  196  A    between atoms: _495  and  _496
REMARK  197  A    between atoms: _499  and  _501
REMARK  198  A    between atoms: _501  and  _502
REMARK  199  A    between atoms: _505  and  _507
REMARK  200  A    between atoms: _507  and  _508
REMARK  201  A    between atoms: _507  and  _510
REMARK  202  A    between atoms: _510  and  _511
REMARK  203  A    between atoms: _516  and  _518
REMARK  204  A    between atoms: _518  and  _519
REMARK  205  A    between atoms: _518  and  _521
REMARK  206  A    between atoms: _521  and  _522
REMARK  207  A    between atoms: _527  and  _528
REMARK  208  A    between atoms: _530  and  _532
REMARK  209  A    between atoms: _532  and  _533
REMARK  210  A    between atoms: _532  and  _535
REMARK  211  A    between atoms: _535  and  _536
REMARK  212  A    between atoms: _539  and  _541
REMARK  213  A    between atoms: _541  and  _542
REMARK  214  A    between atoms: _541  and  _544
REMARK  215  A    between atoms: _544  and  _545
REMARK  216  A    between atoms: _547  and  _549
REMARK  217  A    between atoms: _549  and  _550
REMARK  218  A    between atoms: _549  and  _552
REMARK  219  A    between atoms: _552  and  _553
REMARK  220  A    between atoms: _559  and  _561
REMARK  221  A    between atoms: _561  and  _562
REMARK  222  A    between atoms: _561  and  _564
REMARK  223  A    between atoms: _564  and  _565
REMARK  224  A    between atoms: _565  and  _566
REMARK  225  A    between atoms: _569  and  _571
REMARK  226  A    between atoms: _571  and  _572
REMARK  227  A    between atoms: _571  and  _574
REMARK  228  A    between atoms: _574  and  _575
REMARK  229  A    between atoms: _575  and  _576
REMARK  230  A    between atoms: _576  and  _577
REMARK  231  A    between atoms: _577  and  _578
REMARK  232  A    between atoms: _582  and  _584
REMARK  233  A    between atoms: _584  and  _585
REMARK  234  A    between atoms: _584  and  _587
REMARK  235  A    between atoms: _587  and  _588
REMARK  236  A    between atoms: _590  and  _592
REMARK  237  A    between atoms: _592  and  _593
REMARK  238  A    between atoms: _592  and  _595
REMARK  239  A    between atoms: _595  and  _596
REMARK  240  A    between atoms: _596  and  _597
REMARK  241  A    between atoms: _597  and  _598
REMARK                            x       y       z     vdW  Elec       q    Type
REMARK                         _______ _______ _______ _____ _____    ______ ____
ROOT
ATOM      1  O   HOH     1       6.612  25.284  28.760  0.00  0.00    +0.000 OA
ENDROOT
TORSDOF 0
