REMARK  Name = ../refined-set-2016/2pyi/2pyi_pocket.pdb
REMARK  269 active torsions:
REMARK  status: ('A' for Active; 'I' for Inactive)
REMARK    1  A    between atoms: _1  and  _3
REMARK    2  A    between atoms: _3  and  _4
REMARK    3  A    between atoms: _3  and  _6
REMARK    4  A    between atoms: _6  and  _7
REMARK    5  A    between atoms: _12  and  _13
REMARK    6  A    between atoms: _15  and  _17
REMARK    7  A    between atoms: _17  and  _18
REMARK    8  A    between atoms: _17  and  _20
REMARK    9  A    between atoms: _20  and  _21
REMARK   10  A    between atoms: _21  and  _22
REMARK   11  A    between atoms: _25  and  _27
REMARK   12  A    between atoms: _27  and  _28
REMARK   13  A    between atoms: _27  and  _30
REMARK   14  A    between atoms: _30  and  _31
REMARK   15  A    between atoms: _36  and  _38
REMARK   16  A    between atoms: _38  and  _39
REMARK   17  A    between atoms: _41  and  _43
REMARK   18  A    between atoms: _43  and  _44
REMARK   19  A    between atoms: _46  and  _48
REMARK   20  A    between atoms: _48  and  _49
REMARK   21  A    between atoms: _48  and  _51
REMARK   22  A    between atoms: _51  and  _52
REMARK   23  A    between atoms: _55  and  _57
REMARK   24  A    between atoms: _57  and  _58
REMARK   25  A    between atoms: _60  and  _62
REMARK   26  A    between atoms: _62  and  _63
REMARK   27  A    between atoms: _62  and  _65
REMARK   28  A    between atoms: _65  and  _66
REMARK   29  A    between atoms: _66  and  _67
REMARK   30  A    between atoms: _67  and  _68
REMARK   31  A    between atoms: _77  and  _79
REMARK   32  A    between atoms: _79  and  _80
REMARK   33  A    between atoms: _79  and  _82
REMARK   34  A    between atoms: _82  and  _83
REMARK   35  A    between atoms: _86  and  _88
REMARK   36  A    between atoms: _88  and  _89
REMARK   37  A    between atoms: _92  and  _94
REMARK   38  A    between atoms: _94  and  _95
REMARK   39  A    between atoms: _94  and  _97
REMARK   40  A    between atoms: _97  and  _98
REMARK   41  A    between atoms: _104  and  _106
REMARK   42  A    between atoms: _106  and  _107
REMARK   43  A    between atoms: _106  and  _109
REMARK   44  A    between atoms: _109  and  _110
REMARK   45  A    between atoms: _115  and  _116
REMARK   46  A    between atoms: _119  and  _120
REMARK   47  A    between atoms: _125  and  _127
REMARK   48  A    between atoms: _127  and  _128
REMARK   49  A    between atoms: _127  and  _130
REMARK   50  A    between atoms: _130  and  _131
REMARK   51  A    between atoms: _136  and  _138
REMARK   52  A    between atoms: _138  and  _139
REMARK   53  A    between atoms: _138  and  _141
REMARK   54  A    between atoms: _141  and  _142
REMARK   55  A    between atoms: _145  and  _147
REMARK   56  A    between atoms: _147  and  _148
REMARK   57  A    between atoms: _147  and  _150
REMARK   58  A    between atoms: _150  and  _151
REMARK   59  A    between atoms: _156  and  _158
REMARK   60  A    between atoms: _158  and  _159
REMARK   61  A    between atoms: _158  and  _161
REMARK   62  A    between atoms: _161  and  _162
REMARK   63  A    between atoms: _168  and  _170
REMARK   64  A    between atoms: _170  and  _171
REMARK   65  A    between atoms: _170  and  _173
REMARK   66  A    between atoms: _173  and  _174
REMARK   67  A    between atoms: _180  and  _182
REMARK   68  A    between atoms: _182  and  _183
REMARK   69  A    between atoms: _182  and  _185
REMARK   70  A    between atoms: _185  and  _186
REMARK   71  A    between atoms: _186  and  _187
REMARK   72  A    between atoms: _190  and  _192
REMARK   73  A    between atoms: _192  and  _193
REMARK   74  A    between atoms: _195  and  _197
REMARK   75  A    between atoms: _197  and  _198
REMARK   76  A    between atoms: _197  and  _200
REMARK   77  A    between atoms: _200  and  _201
REMARK   78  A    between atoms: _201  and  _202
REMARK   79  A    between atoms: _202  and  _203
REMARK   80  A    between atoms: _203  and  _204
REMARK   81  A    between atoms: _208  and  _210
REMARK   82  A    between atoms: _210  and  _211
REMARK   83  A    between atoms: _210  and  _213
REMARK   84  A    between atoms: _213  and  _214
REMARK   85  A    between atoms: _214  and  _215
REMARK   86  A    between atoms: _215  and  _216
REMARK   87  A    between atoms: _225  and  _227
REMARK   88  A    between atoms: _227  and  _228
REMARK   89  A    between atoms: _227  and  _230
REMARK   90  A    between atoms: _230  and  _231
REMARK   91  A    between atoms: _231  and  _232
REMARK   92  A    between atoms: _235  and  _237
REMARK   93  A    between atoms: _237  and  _238
REMARK   94  A    between atoms: _237  and  _240
REMARK   95  A    between atoms: _240  and  _241
REMARK   96  A    between atoms: _246  and  _248
REMARK   97  A    between atoms: _248  and  _249
REMARK   98  A    between atoms: _248  and  _251
REMARK   99  A    between atoms: _251  and  _252
REMARK  100  A    between atoms: _255  and  _257
REMARK  101  A    between atoms: _257  and  _258
REMARK  102  A    between atoms: _257  and  _260
REMARK  103  A    between atoms: _260  and  _261
REMARK  104  A    between atoms: _264  and  _266
REMARK  105  A    between atoms: _266  and  _267
REMARK  106  A    between atoms: _266  and  _269
REMARK  107  A    between atoms: _269  and  _270
REMARK  108  A    between atoms: _275  and  _277
REMARK  109  A    between atoms: _277  and  _278
REMARK  110  A    between atoms: _277  and  _280
REMARK  111  A    between atoms: _280  and  _281
REMARK  112  A    between atoms: _284  and  _286
REMARK  113  A    between atoms: _286  and  _287
REMARK  114  A    between atoms: _286  and  _289
REMARK  115  A    between atoms: _289  and  _290
REMARK  116  A    between atoms: _295  and  _297
REMARK  117  A    between atoms: _297  and  _298
REMARK  118  A    between atoms: _297  and  _300
REMARK  119  A    between atoms: _300  and  _301
REMARK  120  A    between atoms: _306  and  _308
REMARK  121  A    between atoms: _308  and  _309
REMARK  122  A    between atoms: _308  and  _311
REMARK  123  A    between atoms: _311  and  _312
REMARK  124  A    between atoms: _315  and  _317
REMARK  125  A    between atoms: _317  and  _318
REMARK  126  A    between atoms: _317  and  _320
REMARK  127  A    between atoms: _323  and  _325
REMARK  128  A    between atoms: _325  and  _326
REMARK  129  A    between atoms: _325  and  _328
REMARK  130  A    between atoms: _328  and  _329
REMARK  131  A    between atoms: _333  and  _334
REMARK  132  A    between atoms: _339  and  _341
REMARK  133  A    between atoms: _341  and  _342
REMARK  134  A    between atoms: _341  and  _344
REMARK  135  A    between atoms: _344  and  _345
REMARK  136  A    between atoms: _345  and  _346
REMARK  137  A    between atoms: _349  and  _351
REMARK  138  A    between atoms: _351  and  _352
REMARK  139  A    between atoms: _355  and  _357
REMARK  140  A    between atoms: _357  and  _358
REMARK  141  A    between atoms: _357  and  _360
REMARK  142  A    between atoms: _360  and  _361
REMARK  143  A    between atoms: _364  and  _366
REMARK  144  A    between atoms: _366  and  _367
REMARK  145  A    between atoms: _366  and  _369
REMARK  146  A    between atoms: _369  and  _370
REMARK  147  A    between atoms: _370  and  _371
REMARK  148  A    between atoms: _374  and  _376
REMARK  149  A    between atoms: _376  and  _377
REMARK  150  A    between atoms: _376  and  _379
REMARK  151  A    between atoms: _379  and  _380
REMARK  152  A    between atoms: _385  and  _387
REMARK  153  A    between atoms: _387  and  _388
REMARK  154  A    between atoms: _390  and  _392
REMARK  155  A    between atoms: _392  and  _393
REMARK  156  A    between atoms: _392  and  _395
REMARK  157  A    between atoms: _398  and  _400
REMARK  158  A    between atoms: _400  and  _401
REMARK  159  A    between atoms: _404  and  _406
REMARK  160  A    between atoms: _406  and  _407
REMARK  161  A    between atoms: _406  and  _409
REMARK  162  A    between atoms: _409  and  _410
REMARK  163  A    between atoms: _415  and  _417
REMARK  164  A    between atoms: _417  and  _418
REMARK  165  A    between atoms: _417  and  _420
REMARK  166  A    between atoms: _420  and  _421
REMARK  167  A    between atoms: _421  and  _422
REMARK  168  A    between atoms: _422  and  _423
REMARK  169  A    between atoms: _423  and  _424
REMARK  170  A    between atoms: _428  and  _430
REMARK  171  A    between atoms: _430  and  _431
REMARK  172  A    between atoms: _430  and  _433
REMARK  173  A    between atoms: _433  and  _434
REMARK  174  A    between atoms: _437  and  _439
REMARK  175  A    between atoms: _439  and  _440
REMARK  176  A    between atoms: _439  and  _442
REMARK  177  A    between atoms: _442  and  _443
REMARK  178  A    between atoms: _448  and  _450
REMARK  179  A    between atoms: _450  and  _451
REMARK  180  A    between atoms: _453  and  _455
REMARK  181  A    between atoms: _455  and  _456
REMARK  182  A    between atoms: _455  and  _458
REMARK  183  A    between atoms: _458  and  _459
REMARK  184  A    between atoms: _459  and  _460
REMARK  185  A    between atoms: _460  and  _461
REMARK  186  A    between atoms: _461  and  _462
REMARK  187  A    between atoms: _466  and  _468
REMARK  188  A    between atoms: _468  and  _469
REMARK  189  A    between atoms: _468  and  _471
REMARK  190  A    between atoms: _471  and  _472
REMARK  191  A    between atoms: _472  and  _473
REMARK  192  A    between atoms: _473  and  _474
REMARK  193  A    between atoms: _483  and  _485
REMARK  194  A    between atoms: _485  and  _486
REMARK  195  A    between atoms: _485  and  _488
REMARK  196  A    between atoms: _488  and  _489
REMARK  197  A    between atoms: _494  and  _496
REMARK  198  A    between atoms: _496  and  _497
REMARK  199  A    between atoms: _496  and  _499
REMARK  200  A    between atoms: _499  and  _500
REMARK  201  A    between atoms: _505  and  _506
REMARK  202  A    between atoms: _508  and  _510
REMARK  203  A    between atoms: _510  and  _511
REMARK  204  A    between atoms: _510  and  _513
REMARK  205  A    between atoms: _513  and  _514
REMARK  206  A    between atoms: _514  and  _515
REMARK  207  A    between atoms: _515  and  _516
REMARK  208  A    between atoms: _516  and  _517
REMARK  209  A    between atoms: _521  and  _523
REMARK  210  A    between atoms: _523  and  _524
REMARK  211  A    between atoms: _523  and  _526
REMARK  212  A    between atoms: _526  and  _527
REMARK  213  A    between atoms: _529  and  _531
REMARK  214  A    between atoms: _531  and  _532
REMARK  215  A    between atoms: _531  and  _534
REMARK  216  A    between atoms: _534  and  _535
REMARK  217  A    between atoms: _538  and  _540
REMARK  218  A    between atoms: _540  and  _541
REMARK  219  A    between atoms: _540  and  _543
REMARK  220  A    between atoms: _543  and  _544
REMARK  221  A    between atoms: _544  and  _545
REMARK  222  A    between atoms: _548  and  _550
REMARK  223  A    between atoms: _550  and  _551
REMARK  224  A    between atoms: _554  and  _556
REMARK  225  A    between atoms: _556  and  _557
REMARK  226  A    between atoms: _556  and  _559
REMARK  227  A    between atoms: _559  and  _560
REMARK  228  A    between atoms: _562  and  _564
REMARK  229  A    between atoms: _564  and  _565
REMARK  230  A    between atoms: _567  and  _569
REMARK  231  A    between atoms: _569  and  _570
REMARK  232  A    between atoms: _569  and  _572
REMARK  233  A    between atoms: _572  and  _573
REMARK  234  A    between atoms: _576  and  _578
REMARK  235  A    between atoms: _578  and  _579
REMARK  236  A    between atoms: _581  and  _583
REMARK  237  A    between atoms: _583  and  _584
REMARK  238  A    between atoms: _583  and  _586
REMARK  239  A    between atoms: _586  and  _587
REMARK  240  A    between atoms: _592  and  _594
REMARK  241  A    between atoms: _594  and  _595
REMARK  242  A    between atoms: _594  and  _597
REMARK  243  A    between atoms: _597  and  _598
REMARK  244  A    between atoms: _598  and  _599
REMARK  245  A    between atoms: _606  and  _607
REMARK  246  A    between atoms: _607  and  _623
REMARK  247  A    between atoms: _608  and  _610
REMARK  248  A    between atoms: _610  and  _611
REMARK  249  A    between atoms: _611  and  _612
REMARK  250  A    between atoms: _616  and  _618
REMARK  251  A    between atoms: _618  and  _619
REMARK  252  A    between atoms: _618  and  _626
REMARK  253  A    between atoms: _619  and  _620
REMARK  254  A    between atoms: _620  and  _621
REMARK  255  A    between atoms: _621  and  _622
REMARK  256  A    between atoms: _622  and  _623
REMARK  257  A    between atoms: _628  and  _630
REMARK  258  A    between atoms: _630  and  _631
REMARK  259  A    between atoms: _630  and  _633
REMARK  260  A    between atoms: _633  and  _634
REMARK  261  A    between atoms: _637  and  _639
REMARK  262  A    between atoms: _639  and  _640
REMARK  263  A    between atoms: _642  and  _644
REMARK  264  A    between atoms: _644  and  _645
REMARK  265  A    between atoms: _648  and  _650
REMARK  266  A    between atoms: _650  and  _651
REMARK  267  A    between atoms: _650  and  _653
REMARK  268  A    between atoms: _653  and  _654
REMARK  269  A    between atoms: _659  and  _660
REMARK                            x       y       z     vdW  Elec       q    Type
REMARK                         _______ _______ _______ _____ _____    ______ ____
ROOT
ATOM      1  CG  TYR A   1      32.879  11.032  35.910  0.00  0.00    -0.020 A 
ATOM      2  CD2 TYR A   1      32.510  12.375  36.016  0.00  0.00    -0.001 A 
ATOM      3  CE2 TYR A   1      32.574  13.229  34.910  0.00  0.00    +0.036 A 
ATOM      4  CZ  TYR A   1      33.010  12.741  33.693  0.00  0.00    +0.134 A 
ATOM      5  CE1 TYR A   1      33.385  11.417  33.564  0.00  0.00    +0.036 A 
ATOM      6  CD1 TYR A   1      33.321  10.568  34.673  0.00  0.00    -0.001 A 
ENDROOT
BRANCH   4   7
ATOM      7  OH  TYR A   1      33.073  13.580  32.599  0.00  0.00    -0.506 OA
ATOM      8  HH  TYR A   1      33.403  13.074  31.815  0.00  0.00    +0.292 HD
ENDBRANCH   4   7
BRANCH   1   9
ATOM      9  CB  TYR A   1      32.832  10.115  37.108  0.00  0.00    +0.051 C 
BRANCH   9  10
ATOM     10  CA  TYR A   1      34.166  10.065  37.867  0.00  0.00    +0.137 C 
BRANCH  10  11
ATOM     11  N   TYR A   1      34.221   8.916  38.754  0.00  0.00    -0.239 NA
ATOM     12  H   TYR A   1      33.385   8.688  39.330  0.00  0.00    +0.142 HD
ENDBRANCH  10  11
BRANCH  10  13
ATOM     13  C   TYR A   1      34.377  11.328  38.693  0.00  0.00    +0.224 C 
ATOM     14  O   TYR A   1      33.479  11.774  39.408  0.00  0.00    -0.287 OA
ENDBRANCH  10  13
ENDBRANCH   9  10
ENDBRANCH   1   9
TORSDOF 5
REMARK  Name = ../refined-set-2016/2pyi/2pyi_pocket.pdb
REMARK  269 active torsions:
REMARK  status: ('A' for Active; 'I' for Inactive)
REMARK    1  A    between atoms: _1  and  _3
REMARK    2  A    between atoms: _3  and  _4
REMARK    3  A    between atoms: _3  and  _6
REMARK    4  A    between atoms: _6  and  _7
REMARK    5  A    between atoms: _12  and  _13
REMARK    6  A    between atoms: _15  and  _17
REMARK    7  A    between atoms: _17  and  _18
REMARK    8  A    between atoms: _17  and  _20
REMARK    9  A    between atoms: _20  and  _21
REMARK   10  A    between atoms: _21  and  _22
REMARK   11  A    between atoms: _25  and  _27
REMARK   12  A    between atoms: _27  and  _28
REMARK   13  A    between atoms: _27  and  _30
REMARK   14  A    between atoms: _30  and  _31
REMARK   15  A    between atoms: _36  and  _38
REMARK   16  A    between atoms: _38  and  _39
REMARK   17  A    between atoms: _41  and  _43
REMARK   18  A    between atoms: _43  and  _44
REMARK   19  A    between atoms: _46  and  _48
REMARK   20  A    between atoms: _48  and  _49
REMARK   21  A    between atoms: _48  and  _51
REMARK   22  A    between atoms: _51  and  _52
REMARK   23  A    between atoms: _55  and  _57
REMARK   24  A    between atoms: _57  and  _58
REMARK   25  A    between atoms: _60  and  _62
REMARK   26  A    between atoms: _62  and  _63
REMARK   27  A    between atoms: _62  and  _65
REMARK   28  A    between atoms: _65  and  _66
REMARK   29  A    between atoms: _66  and  _67
REMARK   30  A    between atoms: _67  and  _68
REMARK   31  A    between atoms: _77  and  _79
REMARK   32  A    between atoms: _79  and  _80
REMARK   33  A    between atoms: _79  and  _82
REMARK   34  A    between atoms: _82  and  _83
REMARK   35  A    between atoms: _86  and  _88
REMARK   36  A    between atoms: _88  and  _89
REMARK   37  A    between atoms: _92  and  _94
REMARK   38  A    between atoms: _94  and  _95
REMARK   39  A    between atoms: _94  and  _97
REMARK   40  A    between atoms: _97  and  _98
REMARK   41  A    between atoms: _104  and  _106
REMARK   42  A    between atoms: _106  and  _107
REMARK   43  A    between atoms: _106  and  _109
REMARK   44  A    between atoms: _109  and  _110
REMARK   45  A    between atoms: _115  and  _116
REMARK   46  A    between atoms: _119  and  _120
REMARK   47  A    between atoms: _125  and  _127
REMARK   48  A    between atoms: _127  and  _128
REMARK   49  A    between atoms: _127  and  _130
REMARK   50  A    between atoms: _130  and  _131
REMARK   51  A    between atoms: _136  and  _138
REMARK   52  A    between atoms: _138  and  _139
REMARK   53  A    between atoms: _138  and  _141
REMARK   54  A    between atoms: _141  and  _142
REMARK   55  A    between atoms: _145  and  _147
REMARK   56  A    between atoms: _147  and  _148
REMARK   57  A    between atoms: _147  and  _150
REMARK   58  A    between atoms: _150  and  _151
REMARK   59  A    between atoms: _156  and  _158
REMARK   60  A    between atoms: _158  and  _159
REMARK   61  A    between atoms: _158  and  _161
REMARK   62  A    between atoms: _161  and  _162
REMARK   63  A    between atoms: _168  and  _170
REMARK   64  A    between atoms: _170  and  _171
REMARK   65  A    between atoms: _170  and  _173
REMARK   66  A    between atoms: _173  and  _174
REMARK   67  A    between atoms: _180  and  _182
REMARK   68  A    between atoms: _182  and  _183
REMARK   69  A    between atoms: _182  and  _185
REMARK   70  A    between atoms: _185  and  _186
REMARK   71  A    between atoms: _186  and  _187
REMARK   72  A    between atoms: _190  and  _192
REMARK   73  A    between atoms: _192  and  _193
REMARK   74  A    between atoms: _195  and  _197
REMARK   75  A    between atoms: _197  and  _198
REMARK   76  A    between atoms: _197  and  _200
REMARK   77  A    between atoms: _200  and  _201
REMARK   78  A    between atoms: _201  and  _202
REMARK   79  A    between atoms: _202  and  _203
REMARK   80  A    between atoms: _203  and  _204
REMARK   81  A    between atoms: _208  and  _210
REMARK   82  A    between atoms: _210  and  _211
REMARK   83  A    between atoms: _210  and  _213
REMARK   84  A    between atoms: _213  and  _214
REMARK   85  A    between atoms: _214  and  _215
REMARK   86  A    between atoms: _215  and  _216
REMARK   87  A    between atoms: _225  and  _227
REMARK   88  A    between atoms: _227  and  _228
REMARK   89  A    between atoms: _227  and  _230
REMARK   90  A    between atoms: _230  and  _231
REMARK   91  A    between atoms: _231  and  _232
REMARK   92  A    between atoms: _235  and  _237
REMARK   93  A    between atoms: _237  and  _238
REMARK   94  A    between atoms: _237  and  _240
REMARK   95  A    between atoms: _240  and  _241
REMARK   96  A    between atoms: _246  and  _248
REMARK   97  A    between atoms: _248  and  _249
REMARK   98  A    between atoms: _248  and  _251
REMARK   99  A    between atoms: _251  and  _252
REMARK  100  A    between atoms: _255  and  _257
REMARK  101  A    between atoms: _257  and  _258
REMARK  102  A    between atoms: _257  and  _260
REMARK  103  A    between atoms: _260  and  _261
REMARK  104  A    between atoms: _264  and  _266
REMARK  105  A    between atoms: _266  and  _267
REMARK  106  A    between atoms: _266  and  _269
REMARK  107  A    between atoms: _269  and  _270
REMARK  108  A    between atoms: _275  and  _277
REMARK  109  A    between atoms: _277  and  _278
REMARK  110  A    between atoms: _277  and  _280
REMARK  111  A    between atoms: _280  and  _281
REMARK  112  A    between atoms: _284  and  _286
REMARK  113  A    between atoms: _286  and  _287
REMARK  114  A    between atoms: _286  and  _289
REMARK  115  A    between atoms: _289  and  _290
REMARK  116  A    between atoms: _295  and  _297
REMARK  117  A    between atoms: _297  and  _298
REMARK  118  A    between atoms: _297  and  _300
REMARK  119  A    between atoms: _300  and  _301
REMARK  120  A    between atoms: _306  and  _308
REMARK  121  A    between atoms: _308  and  _309
REMARK  122  A    between atoms: _308  and  _311
REMARK  123  A    between atoms: _311  and  _312
REMARK  124  A    between atoms: _315  and  _317
REMARK  125  A    between atoms: _317  and  _318
REMARK  126  A    between atoms: _317  and  _320
REMARK  127  A    between atoms: _323  and  _325
REMARK  128  A    between atoms: _325  and  _326
REMARK  129  A    between atoms: _325  and  _328
REMARK  130  A    between atoms: _328  and  _329
REMARK  131  A    between atoms: _333  and  _334
REMARK  132  A    between atoms: _339  and  _341
REMARK  133  A    between atoms: _341  and  _342
REMARK  134  A    between atoms: _341  and  _344
REMARK  135  A    between atoms: _344  and  _345
REMARK  136  A    between atoms: _345  and  _346
REMARK  137  A    between atoms: _349  and  _351
REMARK  138  A    between atoms: _351  and  _352
REMARK  139  A    between atoms: _355  and  _357
REMARK  140  A    between atoms: _357  and  _358
REMARK  141  A    between atoms: _357  and  _360
REMARK  142  A    between atoms: _360  and  _361
REMARK  143  A    between atoms: _364  and  _366
REMARK  144  A    between atoms: _366  and  _367
REMARK  145  A    between atoms: _366  and  _369
REMARK  146  A    between atoms: _369  and  _370
REMARK  147  A    between atoms: _370  and  _371
REMARK  148  A    between atoms: _374  and  _376
REMARK  149  A    between atoms: _376  and  _377
REMARK  150  A    between atoms: _376  and  _379
REMARK  151  A    between atoms: _379  and  _380
REMARK  152  A    between atoms: _385  and  _387
REMARK  153  A    between atoms: _387  and  _388
REMARK  154  A    between atoms: _390  and  _392
REMARK  155  A    between atoms: _392  and  _393
REMARK  156  A    between atoms: _392  and  _395
REMARK  157  A    between atoms: _398  and  _400
REMARK  158  A    between atoms: _400  and  _401
REMARK  159  A    between atoms: _404  and  _406
REMARK  160  A    between atoms: _406  and  _407
REMARK  161  A    between atoms: _406  and  _409
REMARK  162  A    between atoms: _409  and  _410
REMARK  163  A    between atoms: _415  and  _417
REMARK  164  A    between atoms: _417  and  _418
REMARK  165  A    between atoms: _417  and  _420
REMARK  166  A    between atoms: _420  and  _421
REMARK  167  A    between atoms: _421  and  _422
REMARK  168  A    between atoms: _422  and  _423
REMARK  169  A    between atoms: _423  and  _424
REMARK  170  A    between atoms: _428  and  _430
REMARK  171  A    between atoms: _430  and  _431
REMARK  172  A    between atoms: _430  and  _433
REMARK  173  A    between atoms: _433  and  _434
REMARK  174  A    between atoms: _437  and  _439
REMARK  175  A    between atoms: _439  and  _440
REMARK  176  A    between atoms: _439  and  _442
REMARK  177  A    between atoms: _442  and  _443
REMARK  178  A    between atoms: _448  and  _450
REMARK  179  A    between atoms: _450  and  _451
REMARK  180  A    between atoms: _453  and  _455
REMARK  181  A    between atoms: _455  and  _456
REMARK  182  A    between atoms: _455  and  _458
REMARK  183  A    between atoms: _458  and  _459
REMARK  184  A    between atoms: _459  and  _460
REMARK  185  A    between atoms: _460  and  _461
REMARK  186  A    between atoms: _461  and  _462
REMARK  187  A    between atoms: _466  and  _468
REMARK  188  A    between atoms: _468  and  _469
REMARK  189  A    between atoms: _468  and  _471
REMARK  190  A    between atoms: _471  and  _472
REMARK  191  A    between atoms: _472  and  _473
REMARK  192  A    between atoms: _473  and  _474
REMARK  193  A    between atoms: _483  and  _485
REMARK  194  A    between atoms: _485  and  _486
REMARK  195  A    between atoms: _485  and  _488
REMARK  196  A    between atoms: _488  and  _489
REMARK  197  A    between atoms: _494  and  _496
REMARK  198  A    between atoms: _496  and  _497
REMARK  199  A    between atoms: _496  and  _499
REMARK  200  A    between atoms: _499  and  _500
REMARK  201  A    between atoms: _505  and  _506
REMARK  202  A    between atoms: _508  and  _510
REMARK  203  A    between atoms: _510  and  _511
REMARK  204  A    between atoms: _510  and  _513
REMARK  205  A    between atoms: _513  and  _514
REMARK  206  A    between atoms: _514  and  _515
REMARK  207  A    between atoms: _515  and  _516
REMARK  208  A    between atoms: _516  and  _517
REMARK  209  A    between atoms: _521  and  _523
REMARK  210  A    between atoms: _523  and  _524
REMARK  211  A    between atoms: _523  and  _526
REMARK  212  A    between atoms: _526  and  _527
REMARK  213  A    between atoms: _529  and  _531
REMARK  214  A    between atoms: _531  and  _532
REMARK  215  A    between atoms: _531  and  _534
REMARK  216  A    between atoms: _534  and  _535
REMARK  217  A    between atoms: _538  and  _540
REMARK  218  A    between atoms: _540  and  _541
REMARK  219  A    between atoms: _540  and  _543
REMARK  220  A    between atoms: _543  and  _544
REMARK  221  A    between atoms: _544  and  _545
REMARK  222  A    between atoms: _548  and  _550
REMARK  223  A    between atoms: _550  and  _551
REMARK  224  A    between atoms: _554  and  _556
REMARK  225  A    between atoms: _556  and  _557
REMARK  226  A    between atoms: _556  and  _559
REMARK  227  A    between atoms: _559  and  _560
REMARK  228  A    between atoms: _562  and  _564
REMARK  229  A    between atoms: _564  and  _565
REMARK  230  A    between atoms: _567  and  _569
REMARK  231  A    between atoms: _569  and  _570
REMARK  232  A    between atoms: _569  and  _572
REMARK  233  A    between atoms: _572  and  _573
REMARK  234  A    between atoms: _576  and  _578
REMARK  235  A    between atoms: _578  and  _579
REMARK  236  A    between atoms: _581  and  _583
REMARK  237  A    between atoms: _583  and  _584
REMARK  238  A    between atoms: _583  and  _586
REMARK  239  A    between atoms: _586  and  _587
REMARK  240  A    between atoms: _592  and  _594
REMARK  241  A    between atoms: _594  and  _595
REMARK  242  A    between atoms: _594  and  _597
REMARK  243  A    between atoms: _597  and  _598
REMARK  244  A    between atoms: _598  and  _599
REMARK  245  A    between atoms: _606  and  _607
REMARK  246  A    between atoms: _607  and  _623
REMARK  247  A    between atoms: _608  and  _610
REMARK  248  A    between atoms: _610  and  _611
REMARK  249  A    between atoms: _611  and  _612
REMARK  250  A    between atoms: _616  and  _618
REMARK  251  A    between atoms: _618  and  _619
REMARK  252  A    between atoms: _618  and  _626
REMARK  253  A    between atoms: _619  and  _620
REMARK  254  A    between atoms: _620  and  _621
REMARK  255  A    between atoms: _621  and  _622
REMARK  256  A    between atoms: _622  and  _623
REMARK  257  A    between atoms: _628  and  _630
REMARK  258  A    between atoms: _630  and  _631
REMARK  259  A    between atoms: _630  and  _633
REMARK  260  A    between atoms: _633  and  _634
REMARK  261  A    between atoms: _637  and  _639
REMARK  262  A    between atoms: _639  and  _640
REMARK  263  A    between atoms: _642  and  _644
REMARK  264  A    between atoms: _644  and  _645
REMARK  265  A    between atoms: _648  and  _650
REMARK  266  A    between atoms: _650  and  _651
REMARK  267  A    between atoms: _650  and  _653
REMARK  268  A    between atoms: _653  and  _654
REMARK  269  A    between atoms: _659  and  _660
REMARK                            x       y       z     vdW  Elec       q    Type
REMARK                         _______ _______ _______ _____ _____    ______ ____
ROOT
ATOM      1  CA  GLU A   1      31.193  20.339  38.580  0.00  0.00    +0.134 C 
ENDROOT
BRANCH   1   2
ATOM      2  N   GLU A   1      32.531  19.879  38.939  0.00  0.00    -0.239 NA
ATOM      3  H   GLU A   1      32.952  19.087  38.412  0.00  0.00    +0.142 HD
ENDBRANCH   1   2
BRANCH   1   4
ATOM      4  C   GLU A   1      30.240  19.195  38.266  0.00  0.00    +0.224 C 
ATOM      5  O   GLU A   1      30.590  18.275  37.529  0.00  0.00    -0.287 OA
ENDBRANCH   1   4
BRANCH   1   6
ATOM      6  CB  GLU A   1      31.254  21.262  37.363  0.00  0.00    +0.037 C 
BRANCH   6   7
ATOM      7  CG  GLU A   1      32.012  22.549  37.579  0.00  0.00    +0.116 C 
BRANCH   7   8
ATOM      8  CD  GLU A   1      31.984  23.442  36.364  0.00  0.00    +0.365 C 
ATOM      9  OE2 GLU A   1      32.921  24.246  36.209  0.00  0.00    -0.246 OA
ATOM     10  OE1 GLU A   1      31.031  23.342  35.561  0.00  0.00    -0.246 OA
ENDBRANCH   7   8
ENDBRANCH   6   7
ENDBRANCH   1   6
TORSDOF 5
REMARK  Name = ../refined-set-2016/2pyi/2pyi_pocket.pdb
REMARK  269 active torsions:
REMARK  status: ('A' for Active; 'I' for Inactive)
REMARK    1  A    between atoms: _1  and  _3
REMARK    2  A    between atoms: _3  and  _4
REMARK    3  A    between atoms: _3  and  _6
REMARK    4  A    between atoms: _6  and  _7
REMARK    5  A    between atoms: _12  and  _13
REMARK    6  A    between atoms: _15  and  _17
REMARK    7  A    between atoms: _17  and  _18
REMARK    8  A    between atoms: _17  and  _20
REMARK    9  A    between atoms: _20  and  _21
REMARK   10  A    between atoms: _21  and  _22
REMARK   11  A    between atoms: _25  and  _27
REMARK   12  A    between atoms: _27  and  _28
REMARK   13  A    between atoms: _27  and  _30
REMARK   14  A    between atoms: _30  and  _31
REMARK   15  A    between atoms: _36  and  _38
REMARK   16  A    between atoms: _38  and  _39
REMARK   17  A    between atoms: _41  and  _43
REMARK   18  A    between atoms: _43  and  _44
REMARK   19  A    between atoms: _46  and  _48
REMARK   20  A    between atoms: _48  and  _49
REMARK   21  A    between atoms: _48  and  _51
REMARK   22  A    between atoms: _51  and  _52
REMARK   23  A    between atoms: _55  and  _57
REMARK   24  A    between atoms: _57  and  _58
REMARK   25  A    between atoms: _60  and  _62
REMARK   26  A    between atoms: _62  and  _63
REMARK   27  A    between atoms: _62  and  _65
REMARK   28  A    between atoms: _65  and  _66
REMARK   29  A    between atoms: _66  and  _67
REMARK   30  A    between atoms: _67  and  _68
REMARK   31  A    between atoms: _77  and  _79
REMARK   32  A    between atoms: _79  and  _80
REMARK   33  A    between atoms: _79  and  _82
REMARK   34  A    between atoms: _82  and  _83
REMARK   35  A    between atoms: _86  and  _88
REMARK   36  A    between atoms: _88  and  _89
REMARK   37  A    between atoms: _92  and  _94
REMARK   38  A    between atoms: _94  and  _95
REMARK   39  A    between atoms: _94  and  _97
REMARK   40  A    between atoms: _97  and  _98
REMARK   41  A    between atoms: _104  and  _106
REMARK   42  A    between atoms: _106  and  _107
REMARK   43  A    between atoms: _106  and  _109
REMARK   44  A    between atoms: _109  and  _110
REMARK   45  A    between atoms: _115  and  _116
REMARK   46  A    between atoms: _119  and  _120
REMARK   47  A    between atoms: _125  and  _127
REMARK   48  A    between atoms: _127  and  _128
REMARK   49  A    between atoms: _127  and  _130
REMARK   50  A    between atoms: _130  and  _131
REMARK   51  A    between atoms: _136  and  _138
REMARK   52  A    between atoms: _138  and  _139
REMARK   53  A    between atoms: _138  and  _141
REMARK   54  A    between atoms: _141  and  _142
REMARK   55  A    between atoms: _145  and  _147
REMARK   56  A    between atoms: _147  and  _148
REMARK   57  A    between atoms: _147  and  _150
REMARK   58  A    between atoms: _150  and  _151
REMARK   59  A    between atoms: _156  and  _158
REMARK   60  A    between atoms: _158  and  _159
REMARK   61  A    between atoms: _158  and  _161
REMARK   62  A    between atoms: _161  and  _162
REMARK   63  A    between atoms: _168  and  _170
REMARK   64  A    between atoms: _170  and  _171
REMARK   65  A    between atoms: _170  and  _173
REMARK   66  A    between atoms: _173  and  _174
REMARK   67  A    between atoms: _180  and  _182
REMARK   68  A    between atoms: _182  and  _183
REMARK   69  A    between atoms: _182  and  _185
REMARK   70  A    between atoms: _185  and  _186
REMARK   71  A    between atoms: _186  and  _187
REMARK   72  A    between atoms: _190  and  _192
REMARK   73  A    between atoms: _192  and  _193
REMARK   74  A    between atoms: _195  and  _197
REMARK   75  A    between atoms: _197  and  _198
REMARK   76  A    between atoms: _197  and  _200
REMARK   77  A    between atoms: _200  and  _201
REMARK   78  A    between atoms: _201  and  _202
REMARK   79  A    between atoms: _202  and  _203
REMARK   80  A    between atoms: _203  and  _204
REMARK   81  A    between atoms: _208  and  _210
REMARK   82  A    between atoms: _210  and  _211
REMARK   83  A    between atoms: _210  and  _213
REMARK   84  A    between atoms: _213  and  _214
REMARK   85  A    between atoms: _214  and  _215
REMARK   86  A    between atoms: _215  and  _216
REMARK   87  A    between atoms: _225  and  _227
REMARK   88  A    between atoms: _227  and  _228
REMARK   89  A    between atoms: _227  and  _230
REMARK   90  A    between atoms: _230  and  _231
REMARK   91  A    between atoms: _231  and  _232
REMARK   92  A    between atoms: _235  and  _237
REMARK   93  A    between atoms: _237  and  _238
REMARK   94  A    between atoms: _237  and  _240
REMARK   95  A    between atoms: _240  and  _241
REMARK   96  A    between atoms: _246  and  _248
REMARK   97  A    between atoms: _248  and  _249
REMARK   98  A    between atoms: _248  and  _251
REMARK   99  A    between atoms: _251  and  _252
REMARK  100  A    between atoms: _255  and  _257
REMARK  101  A    between atoms: _257  and  _258
REMARK  102  A    between atoms: _257  and  _260
REMARK  103  A    between atoms: _260  and  _261
REMARK  104  A    between atoms: _264  and  _266
REMARK  105  A    between atoms: _266  and  _267
REMARK  106  A    between atoms: _266  and  _269
REMARK  107  A    between atoms: _269  and  _270
REMARK  108  A    between atoms: _275  and  _277
REMARK  109  A    between atoms: _277  and  _278
REMARK  110  A    between atoms: _277  and  _280
REMARK  111  A    between atoms: _280  and  _281
REMARK  112  A    between atoms: _284  and  _286
REMARK  113  A    between atoms: _286  and  _287
REMARK  114  A    between atoms: _286  and  _289
REMARK  115  A    between atoms: _289  and  _290
REMARK  116  A    between atoms: _295  and  _297
REMARK  117  A    between atoms: _297  and  _298
REMARK  118  A    between atoms: _297  and  _300
REMARK  119  A    between atoms: _300  and  _301
REMARK  120  A    between atoms: _306  and  _308
REMARK  121  A    between atoms: _308  and  _309
REMARK  122  A    between atoms: _308  and  _311
REMARK  123  A    between atoms: _311  and  _312
REMARK  124  A    between atoms: _315  and  _317
REMARK  125  A    between atoms: _317  and  _318
REMARK  126  A    between atoms: _317  and  _320
REMARK  127  A    between atoms: _323  and  _325
REMARK  128  A    between atoms: _325  and  _326
REMARK  129  A    between atoms: _325  and  _328
REMARK  130  A    between atoms: _328  and  _329
REMARK  131  A    between atoms: _333  and  _334
REMARK  132  A    between atoms: _339  and  _341
REMARK  133  A    between atoms: _341  and  _342
REMARK  134  A    between atoms: _341  and  _344
REMARK  135  A    between atoms: _344  and  _345
REMARK  136  A    between atoms: _345  and  _346
REMARK  137  A    between atoms: _349  and  _351
REMARK  138  A    between atoms: _351  and  _352
REMARK  139  A    between atoms: _355  and  _357
REMARK  140  A    between atoms: _357  and  _358
REMARK  141  A    between atoms: _357  and  _360
REMARK  142  A    between atoms: _360  and  _361
REMARK  143  A    between atoms: _364  and  _366
REMARK  144  A    between atoms: _366  and  _367
REMARK  145  A    between atoms: _366  and  _369
REMARK  146  A    between atoms: _369  and  _370
REMARK  147  A    between atoms: _370  and  _371
REMARK  148  A    between atoms: _374  and  _376
REMARK  149  A    between atoms: _376  and  _377
REMARK  150  A    between atoms: _376  and  _379
REMARK  151  A    between atoms: _379  and  _380
REMARK  152  A    between atoms: _385  and  _387
REMARK  153  A    between atoms: _387  and  _388
REMARK  154  A    between atoms: _390  and  _392
REMARK  155  A    between atoms: _392  and  _393
REMARK  156  A    between atoms: _392  and  _395
REMARK  157  A    between atoms: _398  and  _400
REMARK  158  A    between atoms: _400  and  _401
REMARK  159  A    between atoms: _404  and  _406
REMARK  160  A    between atoms: _406  and  _407
REMARK  161  A    between atoms: _406  and  _409
REMARK  162  A    between atoms: _409  and  _410
REMARK  163  A    between atoms: _415  and  _417
REMARK  164  A    between atoms: _417  and  _418
REMARK  165  A    between atoms: _417  and  _420
REMARK  166  A    between atoms: _420  and  _421
REMARK  167  A    between atoms: _421  and  _422
REMARK  168  A    between atoms: _422  and  _423
REMARK  169  A    between atoms: _423  and  _424
REMARK  170  A    between atoms: _428  and  _430
REMARK  171  A    between atoms: _430  and  _431
REMARK  172  A    between atoms: _430  and  _433
REMARK  173  A    between atoms: _433  and  _434
REMARK  174  A    between atoms: _437  and  _439
REMARK  175  A    between atoms: _439  and  _440
REMARK  176  A    between atoms: _439  and  _442
REMARK  177  A    between atoms: _442  and  _443
REMARK  178  A    between atoms: _448  and  _450
REMARK  179  A    between atoms: _450  and  _451
REMARK  180  A    between atoms: _453  and  _455
REMARK  181  A    between atoms: _455  and  _456
REMARK  182  A    between atoms: _455  and  _458
REMARK  183  A    between atoms: _458  and  _459
REMARK  184  A    between atoms: _459  and  _460
REMARK  185  A    between atoms: _460  and  _461
REMARK  186  A    between atoms: _461  and  _462
REMARK  187  A    between atoms: _466  and  _468
REMARK  188  A    between atoms: _468  and  _469
REMARK  189  A    between atoms: _468  and  _471
REMARK  190  A    between atoms: _471  and  _472
REMARK  191  A    between atoms: _472  and  _473
REMARK  192  A    between atoms: _473  and  _474
REMARK  193  A    between atoms: _483  and  _485
REMARK  194  A    between atoms: _485  and  _486
REMARK  195  A    between atoms: _485  and  _488
REMARK  196  A    between atoms: _488  and  _489
REMARK  197  A    between atoms: _494  and  _496
REMARK  198  A    between atoms: _496  and  _497
REMARK  199  A    between atoms: _496  and  _499
REMARK  200  A    between atoms: _499  and  _500
REMARK  201  A    between atoms: _505  and  _506
REMARK  202  A    between atoms: _508  and  _510
REMARK  203  A    between atoms: _510  and  _511
REMARK  204  A    between atoms: _510  and  _513
REMARK  205  A    between atoms: _513  and  _514
REMARK  206  A    between atoms: _514  and  _515
REMARK  207  A    between atoms: _515  and  _516
REMARK  208  A    between atoms: _516  and  _517
REMARK  209  A    between atoms: _521  and  _523
REMARK  210  A    between atoms: _523  and  _524
REMARK  211  A    between atoms: _523  and  _526
REMARK  212  A    between atoms: _526  and  _527
REMARK  213  A    between atoms: _529  and  _531
REMARK  214  A    between atoms: _531  and  _532
REMARK  215  A    between atoms: _531  and  _534
REMARK  216  A    between atoms: _534  and  _535
REMARK  217  A    between atoms: _538  and  _540
REMARK  218  A    between atoms: _540  and  _541
REMARK  219  A    between atoms: _540  and  _543
REMARK  220  A    between atoms: _543  and  _544
REMARK  221  A    between atoms: _544  and  _545
REMARK  222  A    between atoms: _548  and  _550
REMARK  223  A    between atoms: _550  and  _551
REMARK  224  A    between atoms: _554  and  _556
REMARK  225  A    between atoms: _556  and  _557
REMARK  226  A    between atoms: _556  and  _559
REMARK  227  A    between atoms: _559  and  _560
REMARK  228  A    between atoms: _562  and  _564
REMARK  229  A    between atoms: _564  and  _565
REMARK  230  A    between atoms: _567  and  _569
REMARK  231  A    between atoms: _569  and  _570
REMARK  232  A    between atoms: _569  and  _572
REMARK  233  A    between atoms: _572  and  _573
REMARK  234  A    between atoms: _576  and  _578
REMARK  235  A    between atoms: _578  and  _579
REMARK  236  A    between atoms: _581  and  _583
REMARK  237  A    between atoms: _583  and  _584
REMARK  238  A    between atoms: _583  and  _586
REMARK  239  A    between atoms: _586  and  _587
REMARK  240  A    between atoms: _592  and  _594
REMARK  241  A    between atoms: _594  and  _595
REMARK  242  A    between atoms: _594  and  _597
REMARK  243  A    between atoms: _597  and  _598
REMARK  244  A    between atoms: _598  and  _599
REMARK  245  A    between atoms: _606  and  _607
REMARK  246  A    between atoms: _607  and  _623
REMARK  247  A    between atoms: _608  and  _610
REMARK  248  A    between atoms: _610  and  _611
REMARK  249  A    between atoms: _611  and  _612
REMARK  250  A    between atoms: _616  and  _618
REMARK  251  A    between atoms: _618  and  _619
REMARK  252  A    between atoms: _618  and  _626
REMARK  253  A    between atoms: _619  and  _620
REMARK  254  A    between atoms: _620  and  _621
REMARK  255  A    between atoms: _621  and  _622
REMARK  256  A    between atoms: _622  and  _623
REMARK  257  A    between atoms: _628  and  _630
REMARK  258  A    between atoms: _630  and  _631
REMARK  259  A    between atoms: _630  and  _633
REMARK  260  A    between atoms: _633  and  _634
REMARK  261  A    between atoms: _637  and  _639
REMARK  262  A    between atoms: _639  and  _640
REMARK  263  A    between atoms: _642  and  _644
REMARK  264  A    between atoms: _644  and  _645
REMARK  265  A    between atoms: _648  and  _650
REMARK  266  A    between atoms: _650  and  _651
REMARK  267  A    between atoms: _650  and  _653
REMARK  268  A    between atoms: _653  and  _654
REMARK  269  A    between atoms: _659  and  _660
REMARK                            x       y       z     vdW  Elec       q    Type
REMARK                         _______ _______ _______ _____ _____    ______ ____
ROOT
ATOM      1  C   GLY A   5      28.042  19.524  33.988  0.00  0.00    +0.243 C 
ATOM      2  O   GLY A   5      27.708  18.547  34.656  0.00  0.00    -0.273 OA
ATOM      3  N   ARG A   6      27.382  19.921  32.905  0.00  0.00    -0.297 N 
ATOM      4  H   ARG A   6      27.724  20.746  32.372  0.00  0.00    +0.150 HD
ENDROOT
BRANCH   3   5
ATOM      5  CA  ARG A   6      26.183  19.217  32.450  0.00  0.00    +0.149 C 
BRANCH   5   6
ATOM      6  C   ARG A   6      26.532  17.846  31.874  0.00  0.00    +0.241 C 
ATOM      7  O   ARG A   6      25.782  16.883  32.060  0.00  0.00    -0.273 OA
ATOM      8  N   LEU A   7      27.676  17.756  31.198  0.00  0.00    -0.297 N 
ATOM      9  H   LEU A   7      28.239  18.615  31.031  0.00  0.00    +0.150 HD
BRANCH   8  10
ATOM     10  CA  LEU A   7      28.157  16.473  30.685  0.00  0.00    +0.149 C 
BRANCH  10  11
ATOM     11  C   LEU A   7      28.336  15.462  31.815  0.00  0.00    +0.241 C 
ATOM     12  N   ALA A   8      28.944  15.902  32.915  0.00  0.00    -0.298 N 
ATOM     13  H   ALA A   8      29.318  16.872  32.929  0.00  0.00    +0.150 HD
ATOM     14  O   LEU A   7      27.932  14.307  31.687  0.00  0.00    -0.273 OA
BRANCH  12  15
ATOM     15  CA  ALA A   8      29.103  15.066  34.105  0.00  0.00    +0.137 C 
ATOM     16  CB  ALA A   8      29.799  15.856  35.214  0.00  0.00    +0.030 C 
BRANCH  15  17
ATOM     17  C   ALA A   8      27.750  14.534  34.591  0.00  0.00    +0.227 C 
ATOM     18  O   ALA A   8      27.622  13.355  34.926  0.00  0.00    -0.286 OA
ENDBRANCH  15  17
ENDBRANCH  12  15
ENDBRANCH  10  11
BRANCH  10  19
ATOM     19  CB  LEU A   7      29.472  16.642  29.921  0.00  0.00    +0.029 C 
BRANCH  19  20
ATOM     20  CG  LEU A   7      29.965  15.417  29.149  0.00  0.00    +0.002 C 
ATOM     21  CD2 LEU A   7      31.463  15.537  28.902  0.00  0.00    +0.000 C 
ATOM     22  CD1 LEU A   7      29.193  15.268  27.841  0.00  0.00    +0.000 C 
ENDBRANCH  19  20
ENDBRANCH  10  19
ENDBRANCH   8  10
ENDBRANCH   5   6
BRANCH   5  23
ATOM     23  CB  ARG A   6      25.369  20.072  31.463  0.00  0.00    +0.033 C 
BRANCH  23  24
ATOM     24  CG  ARG A   6      24.036  19.453  31.030  0.00  0.00    +0.045 C 
BRANCH  24  25
ATOM     25  CD  ARG A   6      23.181  19.031  32.228  0.00  0.00    +0.174 C 
BRANCH  25  26
ATOM     26  NE  ARG A   6      22.722  17.649  32.076  0.00  0.00    -0.265 N 
ATOM     27  CZ  ARG A   6      21.933  17.009  32.933  0.00  0.00    +0.342 C 
ATOM     28  NH2 ARG A   6      21.502  17.614  34.038  0.00  0.00    -0.292 N 
ATOM     29 HH21 ARG A   6      20.885  17.105  34.703  0.00  0.00    +0.255 HD
ATOM     30 HH22 ARG A   6      21.782  18.596  34.237  0.00  0.00    +0.255 HD
ATOM     31  NH1 ARG A   6      21.583  15.751  32.686  0.00  0.00    -0.292 N 
ATOM     32 HH11 ARG A   6      20.966  15.243  33.351  0.00  0.00    +0.255 HD
ATOM     33 HH12 ARG A   6      21.926  15.275  31.827  0.00  0.00    +0.255 HD
ATOM     34  HE  ARG A   6      23.038  17.128  31.233  0.00  0.00    +0.259 HD
ENDBRANCH  25  26
ENDBRANCH  24  25
ENDBRANCH  23  24
ENDBRANCH   5  23
ENDBRANCH   3   5
BRANCH   1  35
ATOM     35  CA  GLY A   5      29.260  20.346  34.367  0.00  0.00    +0.176 C 
BRANCH  35  37
ATOM     36  C   LEU A   4      30.627  19.858  32.396  0.00  0.00    +0.241 C 
ATOM     37  N   GLY A   5      30.020  20.746  33.183  0.00  0.00    -0.295 N 
ATOM     38  H   GLY A   5      30.089  21.757  32.947  0.00  0.00    +0.150 HD
ATOM     39  O   LEU A   4      30.627  18.644  32.617  0.00  0.00    -0.273 OA
BRANCH  36  40
ATOM     40  CA  LEU A   4      31.355  20.421  31.176  0.00  0.00    +0.149 C 
BRANCH  40  42
ATOM     41  C   GLY A   3      29.372  21.006  29.863  0.00  0.00    +0.243 C 
ATOM     42  N   LEU A   4      30.516  21.367  30.443  0.00  0.00    -0.297 N 
ATOM     43  H   LEU A   4      30.823  22.358  30.372  0.00  0.00    +0.150 HD
ATOM     44  O   GLY A   3      28.947  19.851  29.866  0.00  0.00    -0.273 OA
BRANCH  41  45
ATOM     45  CA  GLY A   3      28.598  22.101  29.157  0.00  0.00    +0.176 C 
BRANCH  45  48
ATOM     46  C   GLY A   2      28.005  23.566  31.048  0.00  0.00    +0.243 C 
ATOM     47  O   GLY A   2      27.650  22.645  31.784  0.00  0.00    -0.273 OA
ATOM     48  N   GLY A   3      28.546  23.393  29.842  0.00  0.00    -0.295 N 
ATOM     49  H   GLY A   3      28.953  24.221  29.362  0.00  0.00    +0.150 HD
BRANCH  46  50
ATOM     50  CA  GLY A   2      27.865  25.002  31.496  0.00  0.00    +0.176 C 
BRANCH  50  53
ATOM     51  C   ASN A   1      28.232  26.346  33.492  0.00  0.00    +0.239 C 
ATOM     52  O   ASN A   1      27.469  27.236  33.111  0.00  0.00    -0.274 OA
ATOM     53  N   GLY A   2      28.450  25.224  32.810  0.00  0.00    -0.296 N 
ATOM     54  H   GLY A   2      29.054  24.487  33.227  0.00  0.00    +0.150 HD
BRANCH  51  55
ATOM     55  CA  ASN A   1      28.999  26.492  34.796  0.00  0.00    +0.154 C 
BRANCH  55  56
ATOM     56  N   ASN A   1      29.026  25.272  35.596  0.00  0.00    -0.238 NA
ATOM     57  H   ASN A   1      29.796  24.590  35.440  0.00  0.00    +0.142 HD
ENDBRANCH  55  56
BRANCH  55  58
ATOM     58  CB  ASN A   1      30.425  26.941  34.488  0.00  0.00    +0.111 C 
BRANCH  58  59
ATOM     59  CG  ASN A   1      31.027  27.744  35.606  0.00  0.00    +0.221 C 
ATOM     60  ND2 ASN A   1      32.080  27.216  36.223  0.00  0.00    -0.329 N 
ATOM     61 HD21 ASN A   1      32.536  27.729  37.004  0.00  0.00    +0.145 HD
ATOM     62 HD22 ASN A   1      32.448  26.290  35.924  0.00  0.00    +0.145 HD
ATOM     63  OD1 ASN A   1      30.551  28.832  35.916  0.00  0.00    -0.275 OA
ENDBRANCH  58  59
ENDBRANCH  55  58
ENDBRANCH  51  55
ENDBRANCH  50  53
ENDBRANCH  46  50
ENDBRANCH  45  48
ENDBRANCH  41  45
ENDBRANCH  40  42
BRANCH  40  64
ATOM     64  CB  LEU A   4      32.678  21.090  31.586  0.00  0.00    +0.029 C 
BRANCH  64  65
ATOM     65  CG  LEU A   4      33.728  20.276  32.349  0.00  0.00    +0.002 C 
ATOM     66  CD2 LEU A   4      33.585  20.467  33.851  0.00  0.00    +0.000 C 
ATOM     67  CD1 LEU A   4      35.118  20.682  31.906  0.00  0.00    +0.000 C 
ENDBRANCH  64  65
ENDBRANCH  40  64
ENDBRANCH  36  40
ENDBRANCH  35  37
ENDBRANCH   1  35
TORSDOF 26
REMARK  Name = ../refined-set-2016/2pyi/2pyi_pocket.pdb
REMARK  269 active torsions:
REMARK  status: ('A' for Active; 'I' for Inactive)
REMARK    1  A    between atoms: _1  and  _3
REMARK    2  A    between atoms: _3  and  _4
REMARK    3  A    between atoms: _3  and  _6
REMARK    4  A    between atoms: _6  and  _7
REMARK    5  A    between atoms: _12  and  _13
REMARK    6  A    between atoms: _15  and  _17
REMARK    7  A    between atoms: _17  and  _18
REMARK    8  A    between atoms: _17  and  _20
REMARK    9  A    between atoms: _20  and  _21
REMARK   10  A    between atoms: _21  and  _22
REMARK   11  A    between atoms: _25  and  _27
REMARK   12  A    between atoms: _27  and  _28
REMARK   13  A    between atoms: _27  and  _30
REMARK   14  A    between atoms: _30  and  _31
REMARK   15  A    between atoms: _36  and  _38
REMARK   16  A    between atoms: _38  and  _39
REMARK   17  A    between atoms: _41  and  _43
REMARK   18  A    between atoms: _43  and  _44
REMARK   19  A    between atoms: _46  and  _48
REMARK   20  A    between atoms: _48  and  _49
REMARK   21  A    between atoms: _48  and  _51
REMARK   22  A    between atoms: _51  and  _52
REMARK   23  A    between atoms: _55  and  _57
REMARK   24  A    between atoms: _57  and  _58
REMARK   25  A    between atoms: _60  and  _62
REMARK   26  A    between atoms: _62  and  _63
REMARK   27  A    between atoms: _62  and  _65
REMARK   28  A    between atoms: _65  and  _66
REMARK   29  A    between atoms: _66  and  _67
REMARK   30  A    between atoms: _67  and  _68
REMARK   31  A    between atoms: _77  and  _79
REMARK   32  A    between atoms: _79  and  _80
REMARK   33  A    between atoms: _79  and  _82
REMARK   34  A    between atoms: _82  and  _83
REMARK   35  A    between atoms: _86  and  _88
REMARK   36  A    between atoms: _88  and  _89
REMARK   37  A    between atoms: _92  and  _94
REMARK   38  A    between atoms: _94  and  _95
REMARK   39  A    between atoms: _94  and  _97
REMARK   40  A    between atoms: _97  and  _98
REMARK   41  A    between atoms: _104  and  _106
REMARK   42  A    between atoms: _106  and  _107
REMARK   43  A    between atoms: _106  and  _109
REMARK   44  A    between atoms: _109  and  _110
REMARK   45  A    between atoms: _115  and  _116
REMARK   46  A    between atoms: _119  and  _120
REMARK   47  A    between atoms: _125  and  _127
REMARK   48  A    between atoms: _127  and  _128
REMARK   49  A    between atoms: _127  and  _130
REMARK   50  A    between atoms: _130  and  _131
REMARK   51  A    between atoms: _136  and  _138
REMARK   52  A    between atoms: _138  and  _139
REMARK   53  A    between atoms: _138  and  _141
REMARK   54  A    between atoms: _141  and  _142
REMARK   55  A    between atoms: _145  and  _147
REMARK   56  A    between atoms: _147  and  _148
REMARK   57  A    between atoms: _147  and  _150
REMARK   58  A    between atoms: _150  and  _151
REMARK   59  A    between atoms: _156  and  _158
REMARK   60  A    between atoms: _158  and  _159
REMARK   61  A    between atoms: _158  and  _161
REMARK   62  A    between atoms: _161  and  _162
REMARK   63  A    between atoms: _168  and  _170
REMARK   64  A    between atoms: _170  and  _171
REMARK   65  A    between atoms: _170  and  _173
REMARK   66  A    between atoms: _173  and  _174
REMARK   67  A    between atoms: _180  and  _182
REMARK   68  A    between atoms: _182  and  _183
REMARK   69  A    between atoms: _182  and  _185
REMARK   70  A    between atoms: _185  and  _186
REMARK   71  A    between atoms: _186  and  _187
REMARK   72  A    between atoms: _190  and  _192
REMARK   73  A    between atoms: _192  and  _193
REMARK   74  A    between atoms: _195  and  _197
REMARK   75  A    between atoms: _197  and  _198
REMARK   76  A    between atoms: _197  and  _200
REMARK   77  A    between atoms: _200  and  _201
REMARK   78  A    between atoms: _201  and  _202
REMARK   79  A    between atoms: _202  and  _203
REMARK   80  A    between atoms: _203  and  _204
REMARK   81  A    between atoms: _208  and  _210
REMARK   82  A    between atoms: _210  and  _211
REMARK   83  A    between atoms: _210  and  _213
REMARK   84  A    between atoms: _213  and  _214
REMARK   85  A    between atoms: _214  and  _215
REMARK   86  A    between atoms: _215  and  _216
REMARK   87  A    between atoms: _225  and  _227
REMARK   88  A    between atoms: _227  and  _228
REMARK   89  A    between atoms: _227  and  _230
REMARK   90  A    between atoms: _230  and  _231
REMARK   91  A    between atoms: _231  and  _232
REMARK   92  A    between atoms: _235  and  _237
REMARK   93  A    between atoms: _237  and  _238
REMARK   94  A    between atoms: _237  and  _240
REMARK   95  A    between atoms: _240  and  _241
REMARK   96  A    between atoms: _246  and  _248
REMARK   97  A    between atoms: _248  and  _249
REMARK   98  A    between atoms: _248  and  _251
REMARK   99  A    between atoms: _251  and  _252
REMARK  100  A    between atoms: _255  and  _257
REMARK  101  A    between atoms: _257  and  _258
REMARK  102  A    between atoms: _257  and  _260
REMARK  103  A    between atoms: _260  and  _261
REMARK  104  A    between atoms: _264  and  _266
REMARK  105  A    between atoms: _266  and  _267
REMARK  106  A    between atoms: _266  and  _269
REMARK  107  A    between atoms: _269  and  _270
REMARK  108  A    between atoms: _275  and  _277
REMARK  109  A    between atoms: _277  and  _278
REMARK  110  A    between atoms: _277  and  _280
REMARK  111  A    between atoms: _280  and  _281
REMARK  112  A    between atoms: _284  and  _286
REMARK  113  A    between atoms: _286  and  _287
REMARK  114  A    between atoms: _286  and  _289
REMARK  115  A    between atoms: _289  and  _290
REMARK  116  A    between atoms: _295  and  _297
REMARK  117  A    between atoms: _297  and  _298
REMARK  118  A    between atoms: _297  and  _300
REMARK  119  A    between atoms: _300  and  _301
REMARK  120  A    between atoms: _306  and  _308
REMARK  121  A    between atoms: _308  and  _309
REMARK  122  A    between atoms: _308  and  _311
REMARK  123  A    between atoms: _311  and  _312
REMARK  124  A    between atoms: _315  and  _317
REMARK  125  A    between atoms: _317  and  _318
REMARK  126  A    between atoms: _317  and  _320
REMARK  127  A    between atoms: _323  and  _325
REMARK  128  A    between atoms: _325  and  _326
REMARK  129  A    between atoms: _325  and  _328
REMARK  130  A    between atoms: _328  and  _329
REMARK  131  A    between atoms: _333  and  _334
REMARK  132  A    between atoms: _339  and  _341
REMARK  133  A    between atoms: _341  and  _342
REMARK  134  A    between atoms: _341  and  _344
REMARK  135  A    between atoms: _344  and  _345
REMARK  136  A    between atoms: _345  and  _346
REMARK  137  A    between atoms: _349  and  _351
REMARK  138  A    between atoms: _351  and  _352
REMARK  139  A    between atoms: _355  and  _357
REMARK  140  A    between atoms: _357  and  _358
REMARK  141  A    between atoms: _357  and  _360
REMARK  142  A    between atoms: _360  and  _361
REMARK  143  A    between atoms: _364  and  _366
REMARK  144  A    between atoms: _366  and  _367
REMARK  145  A    between atoms: _366  and  _369
REMARK  146  A    between atoms: _369  and  _370
REMARK  147  A    between atoms: _370  and  _371
REMARK  148  A    between atoms: _374  and  _376
REMARK  149  A    between atoms: _376  and  _377
REMARK  150  A    between atoms: _376  and  _379
REMARK  151  A    between atoms: _379  and  _380
REMARK  152  A    between atoms: _385  and  _387
REMARK  153  A    between atoms: _387  and  _388
REMARK  154  A    between atoms: _390  and  _392
REMARK  155  A    between atoms: _392  and  _393
REMARK  156  A    between atoms: _392  and  _395
REMARK  157  A    between atoms: _398  and  _400
REMARK  158  A    between atoms: _400  and  _401
REMARK  159  A    between atoms: _404  and  _406
REMARK  160  A    between atoms: _406  and  _407
REMARK  161  A    between atoms: _406  and  _409
REMARK  162  A    between atoms: _409  and  _410
REMARK  163  A    between atoms: _415  and  _417
REMARK  164  A    between atoms: _417  and  _418
REMARK  165  A    between atoms: _417  and  _420
REMARK  166  A    between atoms: _420  and  _421
REMARK  167  A    between atoms: _421  and  _422
REMARK  168  A    between atoms: _422  and  _423
REMARK  169  A    between atoms: _423  and  _424
REMARK  170  A    between atoms: _428  and  _430
REMARK  171  A    between atoms: _430  and  _431
REMARK  172  A    between atoms: _430  and  _433
REMARK  173  A    between atoms: _433  and  _434
REMARK  174  A    between atoms: _437  and  _439
REMARK  175  A    between atoms: _439  and  _440
REMARK  176  A    between atoms: _439  and  _442
REMARK  177  A    between atoms: _442  and  _443
REMARK  178  A    between atoms: _448  and  _450
REMARK  179  A    between atoms: _450  and  _451
REMARK  180  A    between atoms: _453  and  _455
REMARK  181  A    between atoms: _455  and  _456
REMARK  182  A    between atoms: _455  and  _458
REMARK  183  A    between atoms: _458  and  _459
REMARK  184  A    between atoms: _459  and  _460
REMARK  185  A    between atoms: _460  and  _461
REMARK  186  A    between atoms: _461  and  _462
REMARK  187  A    between atoms: _466  and  _468
REMARK  188  A    between atoms: _468  and  _469
REMARK  189  A    between atoms: _468  and  _471
REMARK  190  A    between atoms: _471  and  _472
REMARK  191  A    between atoms: _472  and  _473
REMARK  192  A    between atoms: _473  and  _474
REMARK  193  A    between atoms: _483  and  _485
REMARK  194  A    between atoms: _485  and  _486
REMARK  195  A    between atoms: _485  and  _488
REMARK  196  A    between atoms: _488  and  _489
REMARK  197  A    between atoms: _494  and  _496
REMARK  198  A    between atoms: _496  and  _497
REMARK  199  A    between atoms: _496  and  _499
REMARK  200  A    between atoms: _499  and  _500
REMARK  201  A    between atoms: _505  and  _506
REMARK  202  A    between atoms: _508  and  _510
REMARK  203  A    between atoms: _510  and  _511
REMARK  204  A    between atoms: _510  and  _513
REMARK  205  A    between atoms: _513  and  _514
REMARK  206  A    between atoms: _514  and  _515
REMARK  207  A    between atoms: _515  and  _516
REMARK  208  A    between atoms: _516  and  _517
REMARK  209  A    between atoms: _521  and  _523
REMARK  210  A    between atoms: _523  and  _524
REMARK  211  A    between atoms: _523  and  _526
REMARK  212  A    between atoms: _526  and  _527
REMARK  213  A    between atoms: _529  and  _531
REMARK  214  A    between atoms: _531  and  _532
REMARK  215  A    between atoms: _531  and  _534
REMARK  216  A    between atoms: _534  and  _535
REMARK  217  A    between atoms: _538  and  _540
REMARK  218  A    between atoms: _540  and  _541
REMARK  219  A    between atoms: _540  and  _543
REMARK  220  A    between atoms: _543  and  _544
REMARK  221  A    between atoms: _544  and  _545
REMARK  222  A    between atoms: _548  and  _550
REMARK  223  A    between atoms: _550  and  _551
REMARK  224  A    between atoms: _554  and  _556
REMARK  225  A    between atoms: _556  and  _557
REMARK  226  A    between atoms: _556  and  _559
REMARK  227  A    between atoms: _559  and  _560
REMARK  228  A    between atoms: _562  and  _564
REMARK  229  A    between atoms: _564  and  _565
REMARK  230  A    between atoms: _567  and  _569
REMARK  231  A    between atoms: _569  and  _570
REMARK  232  A    between atoms: _569  and  _572
REMARK  233  A    between atoms: _572  and  _573
REMARK  234  A    between atoms: _576  and  _578
REMARK  235  A    between atoms: _578  and  _579
REMARK  236  A    between atoms: _581  and  _583
REMARK  237  A    between atoms: _583  and  _584
REMARK  238  A    between atoms: _583  and  _586
REMARK  239  A    between atoms: _586  and  _587
REMARK  240  A    between atoms: _592  and  _594
REMARK  241  A    between atoms: _594  and  _595
REMARK  242  A    between atoms: _594  and  _597
REMARK  243  A    between atoms: _597  and  _598
REMARK  244  A    between atoms: _598  and  _599
REMARK  245  A    between atoms: _606  and  _607
REMARK  246  A    between atoms: _607  and  _623
REMARK  247  A    between atoms: _608  and  _610
REMARK  248  A    between atoms: _610  and  _611
REMARK  249  A    between atoms: _611  and  _612
REMARK  250  A    between atoms: _616  and  _618
REMARK  251  A    between atoms: _618  and  _619
REMARK  252  A    between atoms: _618  and  _626
REMARK  253  A    between atoms: _619  and  _620
REMARK  254  A    between atoms: _620  and  _621
REMARK  255  A    between atoms: _621  and  _622
REMARK  256  A    between atoms: _622  and  _623
REMARK  257  A    between atoms: _628  and  _630
REMARK  258  A    between atoms: _630  and  _631
REMARK  259  A    between atoms: _630  and  _633
REMARK  260  A    between atoms: _633  and  _634
REMARK  261  A    between atoms: _637  and  _639
REMARK  262  A    between atoms: _639  and  _640
REMARK  263  A    between atoms: _642  and  _644
REMARK  264  A    between atoms: _644  and  _645
REMARK  265  A    between atoms: _648  and  _650
REMARK  266  A    between atoms: _650  and  _651
REMARK  267  A    between atoms: _650  and  _653
REMARK  268  A    between atoms: _653  and  _654
REMARK  269  A    between atoms: _659  and  _660
REMARK                            x       y       z     vdW  Elec       q    Type
REMARK                         _______ _______ _______ _____ _____    ______ ____
ROOT
ATOM      1  CB  PHE A   1      28.694  11.240  32.437  0.00  0.00    +0.051 C 
ENDROOT
BRANCH   1   2
ATOM      2  CG  PHE A   1      29.371  11.466  31.102  0.00  0.00    -0.020 A 
ATOM      3  CD2 PHE A   1      30.752  11.626  31.035  0.00  0.00    -0.004 A 
ATOM      4  CE2 PHE A   1      31.392  11.835  29.812  0.00  0.00    -0.000 A 
ATOM      5  CZ  PHE A   1      30.643  11.892  28.634  0.00  0.00    -0.000 A 
ATOM      6  CE1 PHE A   1      29.263  11.735  28.685  0.00  0.00    -0.000 A 
ATOM      7  CD1 PHE A   1      28.632  11.530  29.920  0.00  0.00    -0.004 A 
ENDBRANCH   1   2
BRANCH   1   8
ATOM      8  CA  PHE A   1      27.216  10.841  32.327  0.00  0.00    +0.137 C 
BRANCH   8   9
ATOM      9  N   PHE A   1      26.381  12.028  32.149  0.00  0.00    -0.239 NA
ATOM     10  H   PHE A   1      26.829  12.964  32.218  0.00  0.00    +0.142 HD
ENDBRANCH   8   9
BRANCH   8  11
ATOM     11  C   PHE A   1      26.805   9.995  33.529  0.00  0.00    +0.224 C 
ATOM     12  O   PHE A   1      26.758   8.766  33.440  0.00  0.00    -0.287 OA
ENDBRANCH   8  11
ENDBRANCH   1   8
TORSDOF 4
REMARK  Name = ../refined-set-2016/2pyi/2pyi_pocket.pdb
REMARK  269 active torsions:
REMARK  status: ('A' for Active; 'I' for Inactive)
REMARK    1  A    between atoms: _1  and  _3
REMARK    2  A    between atoms: _3  and  _4
REMARK    3  A    between atoms: _3  and  _6
REMARK    4  A    between atoms: _6  and  _7
REMARK    5  A    between atoms: _12  and  _13
REMARK    6  A    between atoms: _15  and  _17
REMARK    7  A    between atoms: _17  and  _18
REMARK    8  A    between atoms: _17  and  _20
REMARK    9  A    between atoms: _20  and  _21
REMARK   10  A    between atoms: _21  and  _22
REMARK   11  A    between atoms: _25  and  _27
REMARK   12  A    between atoms: _27  and  _28
REMARK   13  A    between atoms: _27  and  _30
REMARK   14  A    between atoms: _30  and  _31
REMARK   15  A    between atoms: _36  and  _38
REMARK   16  A    between atoms: _38  and  _39
REMARK   17  A    between atoms: _41  and  _43
REMARK   18  A    between atoms: _43  and  _44
REMARK   19  A    between atoms: _46  and  _48
REMARK   20  A    between atoms: _48  and  _49
REMARK   21  A    between atoms: _48  and  _51
REMARK   22  A    between atoms: _51  and  _52
REMARK   23  A    between atoms: _55  and  _57
REMARK   24  A    between atoms: _57  and  _58
REMARK   25  A    between atoms: _60  and  _62
REMARK   26  A    between atoms: _62  and  _63
REMARK   27  A    between atoms: _62  and  _65
REMARK   28  A    between atoms: _65  and  _66
REMARK   29  A    between atoms: _66  and  _67
REMARK   30  A    between atoms: _67  and  _68
REMARK   31  A    between atoms: _77  and  _79
REMARK   32  A    between atoms: _79  and  _80
REMARK   33  A    between atoms: _79  and  _82
REMARK   34  A    between atoms: _82  and  _83
REMARK   35  A    between atoms: _86  and  _88
REMARK   36  A    between atoms: _88  and  _89
REMARK   37  A    between atoms: _92  and  _94
REMARK   38  A    between atoms: _94  and  _95
REMARK   39  A    between atoms: _94  and  _97
REMARK   40  A    between atoms: _97  and  _98
REMARK   41  A    between atoms: _104  and  _106
REMARK   42  A    between atoms: _106  and  _107
REMARK   43  A    between atoms: _106  and  _109
REMARK   44  A    between atoms: _109  and  _110
REMARK   45  A    between atoms: _115  and  _116
REMARK   46  A    between atoms: _119  and  _120
REMARK   47  A    between atoms: _125  and  _127
REMARK   48  A    between atoms: _127  and  _128
REMARK   49  A    between atoms: _127  and  _130
REMARK   50  A    between atoms: _130  and  _131
REMARK   51  A    between atoms: _136  and  _138
REMARK   52  A    between atoms: _138  and  _139
REMARK   53  A    between atoms: _138  and  _141
REMARK   54  A    between atoms: _141  and  _142
REMARK   55  A    between atoms: _145  and  _147
REMARK   56  A    between atoms: _147  and  _148
REMARK   57  A    between atoms: _147  and  _150
REMARK   58  A    between atoms: _150  and  _151
REMARK   59  A    between atoms: _156  and  _158
REMARK   60  A    between atoms: _158  and  _159
REMARK   61  A    between atoms: _158  and  _161
REMARK   62  A    between atoms: _161  and  _162
REMARK   63  A    between atoms: _168  and  _170
REMARK   64  A    between atoms: _170  and  _171
REMARK   65  A    between atoms: _170  and  _173
REMARK   66  A    between atoms: _173  and  _174
REMARK   67  A    between atoms: _180  and  _182
REMARK   68  A    between atoms: _182  and  _183
REMARK   69  A    between atoms: _182  and  _185
REMARK   70  A    between atoms: _185  and  _186
REMARK   71  A    between atoms: _186  and  _187
REMARK   72  A    between atoms: _190  and  _192
REMARK   73  A    between atoms: _192  and  _193
REMARK   74  A    between atoms: _195  and  _197
REMARK   75  A    between atoms: _197  and  _198
REMARK   76  A    between atoms: _197  and  _200
REMARK   77  A    between atoms: _200  and  _201
REMARK   78  A    between atoms: _201  and  _202
REMARK   79  A    between atoms: _202  and  _203
REMARK   80  A    between atoms: _203  and  _204
REMARK   81  A    between atoms: _208  and  _210
REMARK   82  A    between atoms: _210  and  _211
REMARK   83  A    between atoms: _210  and  _213
REMARK   84  A    between atoms: _213  and  _214
REMARK   85  A    between atoms: _214  and  _215
REMARK   86  A    between atoms: _215  and  _216
REMARK   87  A    between atoms: _225  and  _227
REMARK   88  A    between atoms: _227  and  _228
REMARK   89  A    between atoms: _227  and  _230
REMARK   90  A    between atoms: _230  and  _231
REMARK   91  A    between atoms: _231  and  _232
REMARK   92  A    between atoms: _235  and  _237
REMARK   93  A    between atoms: _237  and  _238
REMARK   94  A    between atoms: _237  and  _240
REMARK   95  A    between atoms: _240  and  _241
REMARK   96  A    between atoms: _246  and  _248
REMARK   97  A    between atoms: _248  and  _249
REMARK   98  A    between atoms: _248  and  _251
REMARK   99  A    between atoms: _251  and  _252
REMARK  100  A    between atoms: _255  and  _257
REMARK  101  A    between atoms: _257  and  _258
REMARK  102  A    between atoms: _257  and  _260
REMARK  103  A    between atoms: _260  and  _261
REMARK  104  A    between atoms: _264  and  _266
REMARK  105  A    between atoms: _266  and  _267
REMARK  106  A    between atoms: _266  and  _269
REMARK  107  A    between atoms: _269  and  _270
REMARK  108  A    between atoms: _275  and  _277
REMARK  109  A    between atoms: _277  and  _278
REMARK  110  A    between atoms: _277  and  _280
REMARK  111  A    between atoms: _280  and  _281
REMARK  112  A    between atoms: _284  and  _286
REMARK  113  A    between atoms: _286  and  _287
REMARK  114  A    between atoms: _286  and  _289
REMARK  115  A    between atoms: _289  and  _290
REMARK  116  A    between atoms: _295  and  _297
REMARK  117  A    between atoms: _297  and  _298
REMARK  118  A    between atoms: _297  and  _300
REMARK  119  A    between atoms: _300  and  _301
REMARK  120  A    between atoms: _306  and  _308
REMARK  121  A    between atoms: _308  and  _309
REMARK  122  A    between atoms: _308  and  _311
REMARK  123  A    between atoms: _311  and  _312
REMARK  124  A    between atoms: _315  and  _317
REMARK  125  A    between atoms: _317  and  _318
REMARK  126  A    between atoms: _317  and  _320
REMARK  127  A    between atoms: _323  and  _325
REMARK  128  A    between atoms: _325  and  _326
REMARK  129  A    between atoms: _325  and  _328
REMARK  130  A    between atoms: _328  and  _329
REMARK  131  A    between atoms: _333  and  _334
REMARK  132  A    between atoms: _339  and  _341
REMARK  133  A    between atoms: _341  and  _342
REMARK  134  A    between atoms: _341  and  _344
REMARK  135  A    between atoms: _344  and  _345
REMARK  136  A    between atoms: _345  and  _346
REMARK  137  A    between atoms: _349  and  _351
REMARK  138  A    between atoms: _351  and  _352
REMARK  139  A    between atoms: _355  and  _357
REMARK  140  A    between atoms: _357  and  _358
REMARK  141  A    between atoms: _357  and  _360
REMARK  142  A    between atoms: _360  and  _361
REMARK  143  A    between atoms: _364  and  _366
REMARK  144  A    between atoms: _366  and  _367
REMARK  145  A    between atoms: _366  and  _369
REMARK  146  A    between atoms: _369  and  _370
REMARK  147  A    between atoms: _370  and  _371
REMARK  148  A    between atoms: _374  and  _376
REMARK  149  A    between atoms: _376  and  _377
REMARK  150  A    between atoms: _376  and  _379
REMARK  151  A    between atoms: _379  and  _380
REMARK  152  A    between atoms: _385  and  _387
REMARK  153  A    between atoms: _387  and  _388
REMARK  154  A    between atoms: _390  and  _392
REMARK  155  A    between atoms: _392  and  _393
REMARK  156  A    between atoms: _392  and  _395
REMARK  157  A    between atoms: _398  and  _400
REMARK  158  A    between atoms: _400  and  _401
REMARK  159  A    between atoms: _404  and  _406
REMARK  160  A    between atoms: _406  and  _407
REMARK  161  A    between atoms: _406  and  _409
REMARK  162  A    between atoms: _409  and  _410
REMARK  163  A    between atoms: _415  and  _417
REMARK  164  A    between atoms: _417  and  _418
REMARK  165  A    between atoms: _417  and  _420
REMARK  166  A    between atoms: _420  and  _421
REMARK  167  A    between atoms: _421  and  _422
REMARK  168  A    between atoms: _422  and  _423
REMARK  169  A    between atoms: _423  and  _424
REMARK  170  A    between atoms: _428  and  _430
REMARK  171  A    between atoms: _430  and  _431
REMARK  172  A    between atoms: _430  and  _433
REMARK  173  A    between atoms: _433  and  _434
REMARK  174  A    between atoms: _437  and  _439
REMARK  175  A    between atoms: _439  and  _440
REMARK  176  A    between atoms: _439  and  _442
REMARK  177  A    between atoms: _442  and  _443
REMARK  178  A    between atoms: _448  and  _450
REMARK  179  A    between atoms: _450  and  _451
REMARK  180  A    between atoms: _453  and  _455
REMARK  181  A    between atoms: _455  and  _456
REMARK  182  A    between atoms: _455  and  _458
REMARK  183  A    between atoms: _458  and  _459
REMARK  184  A    between atoms: _459  and  _460
REMARK  185  A    between atoms: _460  and  _461
REMARK  186  A    between atoms: _461  and  _462
REMARK  187  A    between atoms: _466  and  _468
REMARK  188  A    between atoms: _468  and  _469
REMARK  189  A    between atoms: _468  and  _471
REMARK  190  A    between atoms: _471  and  _472
REMARK  191  A    between atoms: _472  and  _473
REMARK  192  A    between atoms: _473  and  _474
REMARK  193  A    between atoms: _483  and  _485
REMARK  194  A    between atoms: _485  and  _486
REMARK  195  A    between atoms: _485  and  _488
REMARK  196  A    between atoms: _488  and  _489
REMARK  197  A    between atoms: _494  and  _496
REMARK  198  A    between atoms: _496  and  _497
REMARK  199  A    between atoms: _496  and  _499
REMARK  200  A    between atoms: _499  and  _500
REMARK  201  A    between atoms: _505  and  _506
REMARK  202  A    between atoms: _508  and  _510
REMARK  203  A    between atoms: _510  and  _511
REMARK  204  A    between atoms: _510  and  _513
REMARK  205  A    between atoms: _513  and  _514
REMARK  206  A    between atoms: _514  and  _515
REMARK  207  A    between atoms: _515  and  _516
REMARK  208  A    between atoms: _516  and  _517
REMARK  209  A    between atoms: _521  and  _523
REMARK  210  A    between atoms: _523  and  _524
REMARK  211  A    between atoms: _523  and  _526
REMARK  212  A    between atoms: _526  and  _527
REMARK  213  A    between atoms: _529  and  _531
REMARK  214  A    between atoms: _531  and  _532
REMARK  215  A    between atoms: _531  and  _534
REMARK  216  A    between atoms: _534  and  _535
REMARK  217  A    between atoms: _538  and  _540
REMARK  218  A    between atoms: _540  and  _541
REMARK  219  A    between atoms: _540  and  _543
REMARK  220  A    between atoms: _543  and  _544
REMARK  221  A    between atoms: _544  and  _545
REMARK  222  A    between atoms: _548  and  _550
REMARK  223  A    between atoms: _550  and  _551
REMARK  224  A    between atoms: _554  and  _556
REMARK  225  A    between atoms: _556  and  _557
REMARK  226  A    between atoms: _556  and  _559
REMARK  227  A    between atoms: _559  and  _560
REMARK  228  A    between atoms: _562  and  _564
REMARK  229  A    between atoms: _564  and  _565
REMARK  230  A    between atoms: _567  and  _569
REMARK  231  A    between atoms: _569  and  _570
REMARK  232  A    between atoms: _569  and  _572
REMARK  233  A    between atoms: _572  and  _573
REMARK  234  A    between atoms: _576  and  _578
REMARK  235  A    between atoms: _578  and  _579
REMARK  236  A    between atoms: _581  and  _583
REMARK  237  A    between atoms: _583  and  _584
REMARK  238  A    between atoms: _583  and  _586
REMARK  239  A    between atoms: _586  and  _587
REMARK  240  A    between atoms: _592  and  _594
REMARK  241  A    between atoms: _594  and  _595
REMARK  242  A    between atoms: _594  and  _597
REMARK  243  A    between atoms: _597  and  _598
REMARK  244  A    between atoms: _598  and  _599
REMARK  245  A    between atoms: _606  and  _607
REMARK  246  A    between atoms: _607  and  _623
REMARK  247  A    between atoms: _608  and  _610
REMARK  248  A    between atoms: _610  and  _611
REMARK  249  A    between atoms: _611  and  _612
REMARK  250  A    between atoms: _616  and  _618
REMARK  251  A    between atoms: _618  and  _619
REMARK  252  A    between atoms: _618  and  _626
REMARK  253  A    between atoms: _619  and  _620
REMARK  254  A    between atoms: _620  and  _621
REMARK  255  A    between atoms: _621  and  _622
REMARK  256  A    between atoms: _622  and  _623
REMARK  257  A    between atoms: _628  and  _630
REMARK  258  A    between atoms: _630  and  _631
REMARK  259  A    between atoms: _630  and  _633
REMARK  260  A    between atoms: _633  and  _634
REMARK  261  A    between atoms: _637  and  _639
REMARK  262  A    between atoms: _639  and  _640
REMARK  263  A    between atoms: _642  and  _644
REMARK  264  A    between atoms: _644  and  _645
REMARK  265  A    between atoms: _648  and  _650
REMARK  266  A    between atoms: _650  and  _651
REMARK  267  A    between atoms: _650  and  _653
REMARK  268  A    between atoms: _653  and  _654
REMARK  269  A    between atoms: _659  and  _660
REMARK                            x       y       z     vdW  Elec       q    Type
REMARK                         _______ _______ _______ _____ _____    ______ ____
ROOT
ATOM      1  C   ASN A   5      38.485  31.558  31.458  0.00  0.00    +0.241 C 
ATOM      2  O   ASN A   5      38.138  32.070  32.530  0.00  0.00    -0.273 OA
ATOM      3  N   PHE A   6      39.665  31.787  30.880  0.00  0.00    -0.297 N 
ATOM      4  H   PHE A   6      39.858  31.336  29.963  0.00  0.00    +0.150 HD
ENDROOT
BRANCH   3   5
ATOM      5  CA  PHE A   6      40.705  32.638  31.465  0.00  0.00    +0.153 C 
BRANCH   5   6
ATOM      6  C   PHE A   6      41.092  32.157  32.865  0.00  0.00    +0.241 C 
ATOM      7  O   PHE A   6      40.678  32.738  33.874  0.00  0.00    -0.273 OA
ATOM      8  N   PHE A   7      41.877  31.080  32.901  0.00  0.00    -0.297 N 
ATOM      9  H   PHE A   7      42.164  30.648  31.999  0.00  0.00    +0.150 HD
BRANCH   8  10
ATOM     10  CA  PHE A   7      42.355  30.475  34.143  0.00  0.00    +0.153 C 
BRANCH  10  11
ATOM     11  C   PHE A   7      43.011  31.506  35.045  0.00  0.00    +0.241 C 
ATOM     12  N   GLU A   8      42.516  31.578  36.275  0.00  0.00    -0.297 N 
ATOM     13  H   GLU A   8      41.695  30.989  36.519  0.00  0.00    +0.150 HD
ATOM     14  O   PHE A   7      43.923  32.225  34.630  0.00  0.00    -0.273 OA
BRANCH  12  15
ATOM     15  CA  GLU A   8      43.077  32.447  37.291  0.00  0.00    +0.149 C 
BRANCH  15  16
ATOM     16  C   GLU A   8      43.581  31.550  38.414  0.00  0.00    +0.241 C 
ATOM     17  O   GLU A   8      42.802  30.804  39.019  0.00  0.00    -0.273 OA
ATOM     18  N   GLY A   9      44.884  31.619  38.673  0.00  0.00    -0.295 N 
ATOM     19  H   GLY A   9      45.460  32.315  38.159  0.00  0.00    +0.150 HD
BRANCH  18  20
ATOM     20  CA  GLY A   9      45.536  30.752  39.654  0.00  0.00    +0.176 C 
BRANCH  20  21
ATOM     21  C   GLY A   9      45.205  31.083  41.096  0.00  0.00    +0.243 C 
ATOM     22  O   GLY A   9      46.100  31.349  41.902  0.00  0.00    -0.273 OA
ATOM     23  N   LYS A  10      43.917  31.045  41.426  0.00  0.00    -0.298 N 
ATOM     24  H   LYS A  10      43.218  30.799  40.696  0.00  0.00    +0.150 HD
BRANCH  23  25
ATOM     25  CA  LYS A  10      43.452  31.337  42.778  0.00  0.00    +0.137 C 
BRANCH  25  26
ATOM     26  C   LYS A  10      43.755  30.177  43.717  0.00  0.00    +0.227 C 
ATOM     27  O   LYS A  10      43.450  29.023  43.406  0.00  0.00    -0.286 OA
ENDBRANCH  25  26
BRANCH  25  28
ATOM     28  CB  LYS A  10      41.951  31.651  42.780  0.00  0.00    +0.028 C 
BRANCH  28  29
ATOM     29  CG  LYS A  10      41.581  32.979  42.112  0.00  0.00    -0.000 C 
BRANCH  29  30
ATOM     30  CD  LYS A  10      42.229  34.158  42.839  0.00  0.00    -0.024 C 
BRANCH  30  31
ATOM     31  CE  LYS A  10      42.098  35.457  42.055  0.00  0.00    -0.086 C 
BRANCH  31  32
ATOM     32  NZ  LYS A  10      40.685  35.908  41.954  0.00  0.00    +0.380 N 
ATOM     33  HZ1 LYS A  10      40.303  36.065  42.909  0.00  0.00    -0.089 HD
ATOM     34  HZ2 LYS A  10      40.123  35.179  41.470  0.00  0.00    -0.089 HD
ATOM     35  HZ3 LYS A  10      40.643  36.795  41.413  0.00  0.00    -0.089 HD
ENDBRANCH  31  32
ENDBRANCH  30  31
ENDBRANCH  29  30
ENDBRANCH  28  29
ENDBRANCH  25  28
ENDBRANCH  23  25
ENDBRANCH  20  21
ENDBRANCH  18  20
ENDBRANCH  15  16
BRANCH  15  36
ATOM     36  CB  GLU A   8      42.006  33.409  37.803  0.00  0.00    +0.041 C 
BRANCH  36  37
ATOM     37  CG  GLU A   8      42.454  34.852  37.843  0.00  0.00    +0.116 C 
BRANCH  37  38
ATOM     38  CD  GLU A   8      41.295  35.826  37.972  0.00  0.00    +0.365 C 
ATOM     39  OE2 GLU A   8      41.326  36.650  38.906  0.00  0.00    -0.246 OA
ATOM     40  OE1 GLU A   8      40.367  35.784  37.133  0.00  0.00    -0.246 OA
ENDBRANCH  37  38
ENDBRANCH  36  37
ENDBRANCH  15  36
ENDBRANCH  12  15
ENDBRANCH  10  11
BRANCH  10  41
ATOM     41  CB  PHE A   7      43.320  29.314  33.846  0.00  0.00    +0.055 C 
BRANCH  41  42
ATOM     42  CG  PHE A   7      44.080  28.816  35.056  0.00  0.00    -0.020 A 
ATOM     43  CD2 PHE A   7      43.442  28.057  36.037  0.00  0.00    -0.004 A 
ATOM     44  CE2 PHE A   7      44.142  27.595  37.155  0.00  0.00    -0.000 A 
ATOM     45  CZ  PHE A   7      45.497  27.898  37.300  0.00  0.00    -0.000 A 
ATOM     46  CE1 PHE A   7      46.143  28.660  36.328  0.00  0.00    -0.000 A 
ATOM     47  CD1 PHE A   7      45.435  29.111  35.212  0.00  0.00    -0.004 A 
ENDBRANCH  41  42
ENDBRANCH  10  41
ENDBRANCH   8  10
ENDBRANCH   5   6
BRANCH   5  48
ATOM     48  CB  PHE A   6      40.289  34.117  31.466  0.00  0.00    +0.055 C 
BRANCH  48  49
ATOM     49  CG  PHE A   6      39.963  34.658  30.101  0.00  0.00    -0.020 A 
ATOM     50  CD2 PHE A   6      38.644  34.701  29.651  0.00  0.00    -0.004 A 
ATOM     51  CE2 PHE A   6      38.335  35.201  28.387  0.00  0.00    -0.000 A 
ATOM     52  CZ  PHE A   6      39.354  35.668  27.555  0.00  0.00    -0.000 A 
ATOM     53  CE1 PHE A   6      40.676  35.633  27.994  0.00  0.00    -0.000 A 
ATOM     54  CD1 PHE A   6      40.973  35.130  29.263  0.00  0.00    -0.004 A 
ENDBRANCH  48  49
ENDBRANCH   5  48
ENDBRANCH   3   5
BRANCH   1  55
ATOM     55  CA  ASN A   5      37.550  30.594  30.725  0.00  0.00    +0.158 C 
BRANCH  55  57
ATOM     56  C   ASP A   4      35.595  29.276  31.419  0.00  0.00    +0.241 C 
ATOM     57  N   ASN A   5      36.374  30.346  31.548  0.00  0.00    -0.297 N 
ATOM     58  H   ASN A   5      36.130  31.045  32.278  0.00  0.00    +0.150 HD
ATOM     59  O   ASP A   4      35.635  28.510  30.448  0.00  0.00    -0.273 OA
BRANCH  56  60
ATOM     60  CA  ASP A   4      34.596  29.072  32.557  0.00  0.00    +0.160 C 
BRANCH  60  63
ATOM     61  C   ASN A   3      34.845  30.362  34.623  0.00  0.00    +0.241 C 
ATOM     62  O   ASN A   3      35.312  29.410  35.246  0.00  0.00    -0.273 OA
ATOM     63  N   ASP A   4      34.476  30.296  33.347  0.00  0.00    -0.297 N 
ATOM     64  H   ASP A   4      34.087  31.148  32.894  0.00  0.00    +0.150 HD
BRANCH  61  65
ATOM     65  CA  ASN A   3      34.614  31.698  35.310  0.00  0.00    +0.158 C 
BRANCH  65  67
ATOM     66  C   PRO A   2      32.561  31.532  36.585  0.00  0.00    +0.241 C 
ATOM     67  N   ASN A   3      33.891  31.510  36.562  0.00  0.00    -0.297 N 
ATOM     68  H   ASN A   3      34.419  31.357  37.445  0.00  0.00    +0.150 HD
ATOM     69  O   PRO A   2      31.882  31.804  35.594  0.00  0.00    -0.273 OA
BRANCH  66  75
ATOM     70  C   TYR A   1      33.305  29.753  39.295  0.00  0.00    +0.242 C 
ATOM     71  N   PRO A   2      32.784  30.965  39.029  0.00  0.00    -0.272 N 
ATOM     72  CD  PRO A   2      33.046  32.182  39.819  0.00  0.00    +0.094 C 
ATOM     73  CG  PRO A   2      32.176  33.222  39.162  0.00  0.00    +0.024 C 
ATOM     74  CB  PRO A   2      31.127  32.478  38.402  0.00  0.00    +0.031 C 
ATOM     75  CA  PRO A   2      31.870  31.236  37.918  0.00  0.00    +0.152 C 
ATOM     76  O   TYR A   1      33.160  28.779  38.553  0.00  0.00    -0.273 OA
BRANCH  70  77
ATOM     77  CA  TYR A   1      34.082  29.612  40.605  0.00  0.00    +0.149 C 
BRANCH  77  78
ATOM     78  N   TYR A   1      33.463  28.582  41.431  0.00  0.00    -0.238 NA
ATOM     79  H   TYR A   1      33.994  27.715  41.650  0.00  0.00    +0.142 HD
ENDBRANCH  77  78
BRANCH  77  80
ATOM     80  CB  TYR A   1      35.563  29.309  40.358  0.00  0.00    +0.053 C 
BRANCH  80  81
ATOM     81  CG  TYR A   1      36.436  29.762  41.508  0.00  0.00    -0.020 A 
ATOM     82  CD2 TYR A   1      36.658  28.938  42.609  0.00  0.00    -0.001 A 
ATOM     83  CE2 TYR A   1      37.455  29.362  43.677  0.00  0.00    +0.036 A 
ATOM     84  CZ  TYR A   1      38.018  30.626  43.648  0.00  0.00    +0.134 A 
ATOM     85  CE1 TYR A   1      37.809  31.466  42.568  0.00  0.00    +0.036 A 
ATOM     86  CD1 TYR A   1      37.013  31.035  41.508  0.00  0.00    -0.001 A 
BRANCH  84  87
ATOM     87  OH  TYR A   1      38.798  31.049  44.698  0.00  0.00    -0.506 OA
ATOM     88  HH  TYR A   1      38.399  31.863  45.097  0.00  0.00    +0.292 HD
ENDBRANCH  84  87
ENDBRANCH  80  81
ENDBRANCH  77  80
ENDBRANCH  70  77
ENDBRANCH  66  75
ENDBRANCH  65  67
BRANCH  65  89
ATOM     89  CB  ASN A   3      35.926  32.481  35.498  0.00  0.00    +0.114 C 
BRANCH  89  90
ATOM     90  CG  ASN A   3      36.869  31.835  36.493  0.00  0.00    +0.222 C 
ATOM     91  OD1 ASN A   3      36.492  31.534  37.625  0.00  0.00    -0.275 OA
ATOM     92  ND2 ASN A   3      38.122  31.644  36.080  0.00  0.00    -0.329 N 
ATOM     93 HD21 ASN A   3      38.824  31.226  36.724  0.00  0.00    +0.145 HD
ATOM     94 HD22 ASN A   3      38.398  31.913  35.114  0.00  0.00    +0.145 HD
ENDBRANCH  89  90
ENDBRANCH  65  89
ENDBRANCH  61  65
ENDBRANCH  60  63
BRANCH  60  95
ATOM     95  CB  ASP A   4      33.226  28.633  32.027  0.00  0.00    +0.143 C 
BRANCH  95  96
ATOM     96  CG  ASP A   4      32.576  29.674  31.128  0.00  0.00    +0.367 C 
ATOM     97  OD2 ASP A   4      32.927  30.872  31.225  0.00  0.00    -0.246 OA
ATOM     98  OD1 ASP A   4      31.699  29.290  30.322  0.00  0.00    -0.246 OA
ENDBRANCH  95  96
ENDBRANCH  60  95
ENDBRANCH  56  60
ENDBRANCH  55  57
BRANCH  55  99
ATOM     99  CB  ASN A   5      37.174  31.122  29.334  0.00  0.00    +0.114 C 
BRANCH  99 100
ATOM    100  CG  ASN A   5      38.290  30.931  28.318  0.00  0.00    +0.222 C 
ATOM    101  OD1 ASN A   5      39.274  30.231  28.580  0.00  0.00    -0.275 OA
ATOM    102  ND2 ASN A   5      38.149  31.559  27.157  0.00  0.00    -0.329 N 
ATOM    103 HD21 ASN A   5      37.304  32.138  26.978  0.00  0.00    +0.145 HD
ATOM    104 HD22 ASN A   5      38.884  31.472  26.426  0.00  0.00    +0.145 HD
ENDBRANCH  99 100
ENDBRANCH  55  99
ENDBRANCH   1  55
TORSDOF 40
REMARK  Name = ../refined-set-2016/2pyi/2pyi_pocket.pdb
REMARK  269 active torsions:
REMARK  status: ('A' for Active; 'I' for Inactive)
REMARK    1  A    between atoms: _1  and  _3
REMARK    2  A    between atoms: _3  and  _4
REMARK    3  A    between atoms: _3  and  _6
REMARK    4  A    between atoms: _6  and  _7
REMARK    5  A    between atoms: _12  and  _13
REMARK    6  A    between atoms: _15  and  _17
REMARK    7  A    between atoms: _17  and  _18
REMARK    8  A    between atoms: _17  and  _20
REMARK    9  A    between atoms: _20  and  _21
REMARK   10  A    between atoms: _21  and  _22
REMARK   11  A    between atoms: _25  and  _27
REMARK   12  A    between atoms: _27  and  _28
REMARK   13  A    between atoms: _27  and  _30
REMARK   14  A    between atoms: _30  and  _31
REMARK   15  A    between atoms: _36  and  _38
REMARK   16  A    between atoms: _38  and  _39
REMARK   17  A    between atoms: _41  and  _43
REMARK   18  A    between atoms: _43  and  _44
REMARK   19  A    between atoms: _46  and  _48
REMARK   20  A    between atoms: _48  and  _49
REMARK   21  A    between atoms: _48  and  _51
REMARK   22  A    between atoms: _51  and  _52
REMARK   23  A    between atoms: _55  and  _57
REMARK   24  A    between atoms: _57  and  _58
REMARK   25  A    between atoms: _60  and  _62
REMARK   26  A    between atoms: _62  and  _63
REMARK   27  A    between atoms: _62  and  _65
REMARK   28  A    between atoms: _65  and  _66
REMARK   29  A    between atoms: _66  and  _67
REMARK   30  A    between atoms: _67  and  _68
REMARK   31  A    between atoms: _77  and  _79
REMARK   32  A    between atoms: _79  and  _80
REMARK   33  A    between atoms: _79  and  _82
REMARK   34  A    between atoms: _82  and  _83
REMARK   35  A    between atoms: _86  and  _88
REMARK   36  A    between atoms: _88  and  _89
REMARK   37  A    between atoms: _92  and  _94
REMARK   38  A    between atoms: _94  and  _95
REMARK   39  A    between atoms: _94  and  _97
REMARK   40  A    between atoms: _97  and  _98
REMARK   41  A    between atoms: _104  and  _106
REMARK   42  A    between atoms: _106  and  _107
REMARK   43  A    between atoms: _106  and  _109
REMARK   44  A    between atoms: _109  and  _110
REMARK   45  A    between atoms: _115  and  _116
REMARK   46  A    between atoms: _119  and  _120
REMARK   47  A    between atoms: _125  and  _127
REMARK   48  A    between atoms: _127  and  _128
REMARK   49  A    between atoms: _127  and  _130
REMARK   50  A    between atoms: _130  and  _131
REMARK   51  A    between atoms: _136  and  _138
REMARK   52  A    between atoms: _138  and  _139
REMARK   53  A    between atoms: _138  and  _141
REMARK   54  A    between atoms: _141  and  _142
REMARK   55  A    between atoms: _145  and  _147
REMARK   56  A    between atoms: _147  and  _148
REMARK   57  A    between atoms: _147  and  _150
REMARK   58  A    between atoms: _150  and  _151
REMARK   59  A    between atoms: _156  and  _158
REMARK   60  A    between atoms: _158  and  _159
REMARK   61  A    between atoms: _158  and  _161
REMARK   62  A    between atoms: _161  and  _162
REMARK   63  A    between atoms: _168  and  _170
REMARK   64  A    between atoms: _170  and  _171
REMARK   65  A    between atoms: _170  and  _173
REMARK   66  A    between atoms: _173  and  _174
REMARK   67  A    between atoms: _180  and  _182
REMARK   68  A    between atoms: _182  and  _183
REMARK   69  A    between atoms: _182  and  _185
REMARK   70  A    between atoms: _185  and  _186
REMARK   71  A    between atoms: _186  and  _187
REMARK   72  A    between atoms: _190  and  _192
REMARK   73  A    between atoms: _192  and  _193
REMARK   74  A    between atoms: _195  and  _197
REMARK   75  A    between atoms: _197  and  _198
REMARK   76  A    between atoms: _197  and  _200
REMARK   77  A    between atoms: _200  and  _201
REMARK   78  A    between atoms: _201  and  _202
REMARK   79  A    between atoms: _202  and  _203
REMARK   80  A    between atoms: _203  and  _204
REMARK   81  A    between atoms: _208  and  _210
REMARK   82  A    between atoms: _210  and  _211
REMARK   83  A    between atoms: _210  and  _213
REMARK   84  A    between atoms: _213  and  _214
REMARK   85  A    between atoms: _214  and  _215
REMARK   86  A    between atoms: _215  and  _216
REMARK   87  A    between atoms: _225  and  _227
REMARK   88  A    between atoms: _227  and  _228
REMARK   89  A    between atoms: _227  and  _230
REMARK   90  A    between atoms: _230  and  _231
REMARK   91  A    between atoms: _231  and  _232
REMARK   92  A    between atoms: _235  and  _237
REMARK   93  A    between atoms: _237  and  _238
REMARK   94  A    between atoms: _237  and  _240
REMARK   95  A    between atoms: _240  and  _241
REMARK   96  A    between atoms: _246  and  _248
REMARK   97  A    between atoms: _248  and  _249
REMARK   98  A    between atoms: _248  and  _251
REMARK   99  A    between atoms: _251  and  _252
REMARK  100  A    between atoms: _255  and  _257
REMARK  101  A    between atoms: _257  and  _258
REMARK  102  A    between atoms: _257  and  _260
REMARK  103  A    between atoms: _260  and  _261
REMARK  104  A    between atoms: _264  and  _266
REMARK  105  A    between atoms: _266  and  _267
REMARK  106  A    between atoms: _266  and  _269
REMARK  107  A    between atoms: _269  and  _270
REMARK  108  A    between atoms: _275  and  _277
REMARK  109  A    between atoms: _277  and  _278
REMARK  110  A    between atoms: _277  and  _280
REMARK  111  A    between atoms: _280  and  _281
REMARK  112  A    between atoms: _284  and  _286
REMARK  113  A    between atoms: _286  and  _287
REMARK  114  A    between atoms: _286  and  _289
REMARK  115  A    between atoms: _289  and  _290
REMARK  116  A    between atoms: _295  and  _297
REMARK  117  A    between atoms: _297  and  _298
REMARK  118  A    between atoms: _297  and  _300
REMARK  119  A    between atoms: _300  and  _301
REMARK  120  A    between atoms: _306  and  _308
REMARK  121  A    between atoms: _308  and  _309
REMARK  122  A    between atoms: _308  and  _311
REMARK  123  A    between atoms: _311  and  _312
REMARK  124  A    between atoms: _315  and  _317
REMARK  125  A    between atoms: _317  and  _318
REMARK  126  A    between atoms: _317  and  _320
REMARK  127  A    between atoms: _323  and  _325
REMARK  128  A    between atoms: _325  and  _326
REMARK  129  A    between atoms: _325  and  _328
REMARK  130  A    between atoms: _328  and  _329
REMARK  131  A    between atoms: _333  and  _334
REMARK  132  A    between atoms: _339  and  _341
REMARK  133  A    between atoms: _341  and  _342
REMARK  134  A    between atoms: _341  and  _344
REMARK  135  A    between atoms: _344  and  _345
REMARK  136  A    between atoms: _345  and  _346
REMARK  137  A    between atoms: _349  and  _351
REMARK  138  A    between atoms: _351  and  _352
REMARK  139  A    between atoms: _355  and  _357
REMARK  140  A    between atoms: _357  and  _358
REMARK  141  A    between atoms: _357  and  _360
REMARK  142  A    between atoms: _360  and  _361
REMARK  143  A    between atoms: _364  and  _366
REMARK  144  A    between atoms: _366  and  _367
REMARK  145  A    between atoms: _366  and  _369
REMARK  146  A    between atoms: _369  and  _370
REMARK  147  A    between atoms: _370  and  _371
REMARK  148  A    between atoms: _374  and  _376
REMARK  149  A    between atoms: _376  and  _377
REMARK  150  A    between atoms: _376  and  _379
REMARK  151  A    between atoms: _379  and  _380
REMARK  152  A    between atoms: _385  and  _387
REMARK  153  A    between atoms: _387  and  _388
REMARK  154  A    between atoms: _390  and  _392
REMARK  155  A    between atoms: _392  and  _393
REMARK  156  A    between atoms: _392  and  _395
REMARK  157  A    between atoms: _398  and  _400
REMARK  158  A    between atoms: _400  and  _401
REMARK  159  A    between atoms: _404  and  _406
REMARK  160  A    between atoms: _406  and  _407
REMARK  161  A    between atoms: _406  and  _409
REMARK  162  A    between atoms: _409  and  _410
REMARK  163  A    between atoms: _415  and  _417
REMARK  164  A    between atoms: _417  and  _418
REMARK  165  A    between atoms: _417  and  _420
REMARK  166  A    between atoms: _420  and  _421
REMARK  167  A    between atoms: _421  and  _422
REMARK  168  A    between atoms: _422  and  _423
REMARK  169  A    between atoms: _423  and  _424
REMARK  170  A    between atoms: _428  and  _430
REMARK  171  A    between atoms: _430  and  _431
REMARK  172  A    between atoms: _430  and  _433
REMARK  173  A    between atoms: _433  and  _434
REMARK  174  A    between atoms: _437  and  _439
REMARK  175  A    between atoms: _439  and  _440
REMARK  176  A    between atoms: _439  and  _442
REMARK  177  A    between atoms: _442  and  _443
REMARK  178  A    between atoms: _448  and  _450
REMARK  179  A    between atoms: _450  and  _451
REMARK  180  A    between atoms: _453  and  _455
REMARK  181  A    between atoms: _455  and  _456
REMARK  182  A    between atoms: _455  and  _458
REMARK  183  A    between atoms: _458  and  _459
REMARK  184  A    between atoms: _459  and  _460
REMARK  185  A    between atoms: _460  and  _461
REMARK  186  A    between atoms: _461  and  _462
REMARK  187  A    between atoms: _466  and  _468
REMARK  188  A    between atoms: _468  and  _469
REMARK  189  A    between atoms: _468  and  _471
REMARK  190  A    between atoms: _471  and  _472
REMARK  191  A    between atoms: _472  and  _473
REMARK  192  A    between atoms: _473  and  _474
REMARK  193  A    between atoms: _483  and  _485
REMARK  194  A    between atoms: _485  and  _486
REMARK  195  A    between atoms: _485  and  _488
REMARK  196  A    between atoms: _488  and  _489
REMARK  197  A    between atoms: _494  and  _496
REMARK  198  A    between atoms: _496  and  _497
REMARK  199  A    between atoms: _496  and  _499
REMARK  200  A    between atoms: _499  and  _500
REMARK  201  A    between atoms: _505  and  _506
REMARK  202  A    between atoms: _508  and  _510
REMARK  203  A    between atoms: _510  and  _511
REMARK  204  A    between atoms: _510  and  _513
REMARK  205  A    between atoms: _513  and  _514
REMARK  206  A    between atoms: _514  and  _515
REMARK  207  A    between atoms: _515  and  _516
REMARK  208  A    between atoms: _516  and  _517
REMARK  209  A    between atoms: _521  and  _523
REMARK  210  A    between atoms: _523  and  _524
REMARK  211  A    between atoms: _523  and  _526
REMARK  212  A    between atoms: _526  and  _527
REMARK  213  A    between atoms: _529  and  _531
REMARK  214  A    between atoms: _531  and  _532
REMARK  215  A    between atoms: _531  and  _534
REMARK  216  A    between atoms: _534  and  _535
REMARK  217  A    between atoms: _538  and  _540
REMARK  218  A    between atoms: _540  and  _541
REMARK  219  A    between atoms: _540  and  _543
REMARK  220  A    between atoms: _543  and  _544
REMARK  221  A    between atoms: _544  and  _545
REMARK  222  A    between atoms: _548  and  _550
REMARK  223  A    between atoms: _550  and  _551
REMARK  224  A    between atoms: _554  and  _556
REMARK  225  A    between atoms: _556  and  _557
REMARK  226  A    between atoms: _556  and  _559
REMARK  227  A    between atoms: _559  and  _560
REMARK  228  A    between atoms: _562  and  _564
REMARK  229  A    between atoms: _564  and  _565
REMARK  230  A    between atoms: _567  and  _569
REMARK  231  A    between atoms: _569  and  _570
REMARK  232  A    between atoms: _569  and  _572
REMARK  233  A    between atoms: _572  and  _573
REMARK  234  A    between atoms: _576  and  _578
REMARK  235  A    between atoms: _578  and  _579
REMARK  236  A    between atoms: _581  and  _583
REMARK  237  A    between atoms: _583  and  _584
REMARK  238  A    between atoms: _583  and  _586
REMARK  239  A    between atoms: _586  and  _587
REMARK  240  A    between atoms: _592  and  _594
REMARK  241  A    between atoms: _594  and  _595
REMARK  242  A    between atoms: _594  and  _597
REMARK  243  A    between atoms: _597  and  _598
REMARK  244  A    between atoms: _598  and  _599
REMARK  245  A    between atoms: _606  and  _607
REMARK  246  A    between atoms: _607  and  _623
REMARK  247  A    between atoms: _608  and  _610
REMARK  248  A    between atoms: _610  and  _611
REMARK  249  A    between atoms: _611  and  _612
REMARK  250  A    between atoms: _616  and  _618
REMARK  251  A    between atoms: _618  and  _619
REMARK  252  A    between atoms: _618  and  _626
REMARK  253  A    between atoms: _619  and  _620
REMARK  254  A    between atoms: _620  and  _621
REMARK  255  A    between atoms: _621  and  _622
REMARK  256  A    between atoms: _622  and  _623
REMARK  257  A    between atoms: _628  and  _630
REMARK  258  A    between atoms: _630  and  _631
REMARK  259  A    between atoms: _630  and  _633
REMARK  260  A    between atoms: _633  and  _634
REMARK  261  A    between atoms: _637  and  _639
REMARK  262  A    between atoms: _639  and  _640
REMARK  263  A    between atoms: _642  and  _644
REMARK  264  A    between atoms: _644  and  _645
REMARK  265  A    between atoms: _648  and  _650
REMARK  266  A    between atoms: _650  and  _651
REMARK  267  A    between atoms: _650  and  _653
REMARK  268  A    between atoms: _653  and  _654
REMARK  269  A    between atoms: _659  and  _660
REMARK                            x       y       z     vdW  Elec       q    Type
REMARK                         _______ _______ _______ _____ _____    ______ ____
ROOT
ATOM      1  NE  ARG A   1      38.961  25.270  39.791  0.00  0.00    -0.265 N 
ATOM      2  HE  ARG A   1      39.855  24.962  39.358  0.00  0.00    +0.259 HD
ATOM      3  CZ  ARG A   1      37.831  24.913  39.186  0.00  0.00    +0.342 C 
ATOM      4  NH2 ARG A   1      36.652  25.265  39.688  0.00  0.00    -0.292 N 
ATOM      5 HH21 ARG A   1      36.606  25.825  40.563  0.00  0.00    +0.255 HD
ATOM      6 HH22 ARG A   1      35.776  24.980  39.206  0.00  0.00    +0.255 HD
ATOM      7  NH1 ARG A   1      37.883  24.206  38.065  0.00  0.00    -0.292 N 
ATOM      8 HH11 ARG A   1      38.803  23.934  37.664  0.00  0.00    +0.255 HD
ATOM      9 HH12 ARG A   1      37.004  23.924  37.587  0.00  0.00    +0.255 HD
ENDROOT
BRANCH   1  10
ATOM     10  CD  ARG A   1      39.041  26.060  41.015  0.00  0.00    +0.174 C 
BRANCH  10  11
ATOM     11  CG  ARG A   1      40.401  26.747  41.132  0.00  0.00    +0.045 C 
BRANCH  11  12
ATOM     12  CB  ARG A   1      40.462  27.714  42.316  0.00  0.00    +0.029 C 
BRANCH  12  13
ATOM     13  CA  ARG A   1      40.405  27.062  43.708  0.00  0.00    +0.133 C 
BRANCH  13  14
ATOM     14  N   ARG A   1      40.739  28.033  44.747  0.00  0.00    -0.239 NA
ATOM     15  H   ARG A   1      41.071  28.977  44.465  0.00  0.00    +0.142 HD
ENDBRANCH  13  14
BRANCH  13  16
ATOM     16  C   ARG A   1      41.311  25.829  43.784  0.00  0.00    +0.224 C 
ATOM     17  O   ARG A   1      40.839  24.695  43.666  0.00  0.00    -0.287 OA
ENDBRANCH  13  16
ENDBRANCH  12  13
ENDBRANCH  11  12
ENDBRANCH  10  11
ENDBRANCH   1  10
TORSDOF 6
REMARK  Name = ../refined-set-2016/2pyi/2pyi_pocket.pdb
REMARK  269 active torsions:
REMARK  status: ('A' for Active; 'I' for Inactive)
REMARK    1  A    between atoms: _1  and  _3
REMARK    2  A    between atoms: _3  and  _4
REMARK    3  A    between atoms: _3  and  _6
REMARK    4  A    between atoms: _6  and  _7
REMARK    5  A    between atoms: _12  and  _13
REMARK    6  A    between atoms: _15  and  _17
REMARK    7  A    between atoms: _17  and  _18
REMARK    8  A    between atoms: _17  and  _20
REMARK    9  A    between atoms: _20  and  _21
REMARK   10  A    between atoms: _21  and  _22
REMARK   11  A    between atoms: _25  and  _27
REMARK   12  A    between atoms: _27  and  _28
REMARK   13  A    between atoms: _27  and  _30
REMARK   14  A    between atoms: _30  and  _31
REMARK   15  A    between atoms: _36  and  _38
REMARK   16  A    between atoms: _38  and  _39
REMARK   17  A    between atoms: _41  and  _43
REMARK   18  A    between atoms: _43  and  _44
REMARK   19  A    between atoms: _46  and  _48
REMARK   20  A    between atoms: _48  and  _49
REMARK   21  A    between atoms: _48  and  _51
REMARK   22  A    between atoms: _51  and  _52
REMARK   23  A    between atoms: _55  and  _57
REMARK   24  A    between atoms: _57  and  _58
REMARK   25  A    between atoms: _60  and  _62
REMARK   26  A    between atoms: _62  and  _63
REMARK   27  A    between atoms: _62  and  _65
REMARK   28  A    between atoms: _65  and  _66
REMARK   29  A    between atoms: _66  and  _67
REMARK   30  A    between atoms: _67  and  _68
REMARK   31  A    between atoms: _77  and  _79
REMARK   32  A    between atoms: _79  and  _80
REMARK   33  A    between atoms: _79  and  _82
REMARK   34  A    between atoms: _82  and  _83
REMARK   35  A    between atoms: _86  and  _88
REMARK   36  A    between atoms: _88  and  _89
REMARK   37  A    between atoms: _92  and  _94
REMARK   38  A    between atoms: _94  and  _95
REMARK   39  A    between atoms: _94  and  _97
REMARK   40  A    between atoms: _97  and  _98
REMARK   41  A    between atoms: _104  and  _106
REMARK   42  A    between atoms: _106  and  _107
REMARK   43  A    between atoms: _106  and  _109
REMARK   44  A    between atoms: _109  and  _110
REMARK   45  A    between atoms: _115  and  _116
REMARK   46  A    between atoms: _119  and  _120
REMARK   47  A    between atoms: _125  and  _127
REMARK   48  A    between atoms: _127  and  _128
REMARK   49  A    between atoms: _127  and  _130
REMARK   50  A    between atoms: _130  and  _131
REMARK   51  A    between atoms: _136  and  _138
REMARK   52  A    between atoms: _138  and  _139
REMARK   53  A    between atoms: _138  and  _141
REMARK   54  A    between atoms: _141  and  _142
REMARK   55  A    between atoms: _145  and  _147
REMARK   56  A    between atoms: _147  and  _148
REMARK   57  A    between atoms: _147  and  _150
REMARK   58  A    between atoms: _150  and  _151
REMARK   59  A    between atoms: _156  and  _158
REMARK   60  A    between atoms: _158  and  _159
REMARK   61  A    between atoms: _158  and  _161
REMARK   62  A    between atoms: _161  and  _162
REMARK   63  A    between atoms: _168  and  _170
REMARK   64  A    between atoms: _170  and  _171
REMARK   65  A    between atoms: _170  and  _173
REMARK   66  A    between atoms: _173  and  _174
REMARK   67  A    between atoms: _180  and  _182
REMARK   68  A    between atoms: _182  and  _183
REMARK   69  A    between atoms: _182  and  _185
REMARK   70  A    between atoms: _185  and  _186
REMARK   71  A    between atoms: _186  and  _187
REMARK   72  A    between atoms: _190  and  _192
REMARK   73  A    between atoms: _192  and  _193
REMARK   74  A    between atoms: _195  and  _197
REMARK   75  A    between atoms: _197  and  _198
REMARK   76  A    between atoms: _197  and  _200
REMARK   77  A    between atoms: _200  and  _201
REMARK   78  A    between atoms: _201  and  _202
REMARK   79  A    between atoms: _202  and  _203
REMARK   80  A    between atoms: _203  and  _204
REMARK   81  A    between atoms: _208  and  _210
REMARK   82  A    between atoms: _210  and  _211
REMARK   83  A    between atoms: _210  and  _213
REMARK   84  A    between atoms: _213  and  _214
REMARK   85  A    between atoms: _214  and  _215
REMARK   86  A    between atoms: _215  and  _216
REMARK   87  A    between atoms: _225  and  _227
REMARK   88  A    between atoms: _227  and  _228
REMARK   89  A    between atoms: _227  and  _230
REMARK   90  A    between atoms: _230  and  _231
REMARK   91  A    between atoms: _231  and  _232
REMARK   92  A    between atoms: _235  and  _237
REMARK   93  A    between atoms: _237  and  _238
REMARK   94  A    between atoms: _237  and  _240
REMARK   95  A    between atoms: _240  and  _241
REMARK   96  A    between atoms: _246  and  _248
REMARK   97  A    between atoms: _248  and  _249
REMARK   98  A    between atoms: _248  and  _251
REMARK   99  A    between atoms: _251  and  _252
REMARK  100  A    between atoms: _255  and  _257
REMARK  101  A    between atoms: _257  and  _258
REMARK  102  A    between atoms: _257  and  _260
REMARK  103  A    between atoms: _260  and  _261
REMARK  104  A    between atoms: _264  and  _266
REMARK  105  A    between atoms: _266  and  _267
REMARK  106  A    between atoms: _266  and  _269
REMARK  107  A    between atoms: _269  and  _270
REMARK  108  A    between atoms: _275  and  _277
REMARK  109  A    between atoms: _277  and  _278
REMARK  110  A    between atoms: _277  and  _280
REMARK  111  A    between atoms: _280  and  _281
REMARK  112  A    between atoms: _284  and  _286
REMARK  113  A    between atoms: _286  and  _287
REMARK  114  A    between atoms: _286  and  _289
REMARK  115  A    between atoms: _289  and  _290
REMARK  116  A    between atoms: _295  and  _297
REMARK  117  A    between atoms: _297  and  _298
REMARK  118  A    between atoms: _297  and  _300
REMARK  119  A    between atoms: _300  and  _301
REMARK  120  A    between atoms: _306  and  _308
REMARK  121  A    between atoms: _308  and  _309
REMARK  122  A    between atoms: _308  and  _311
REMARK  123  A    between atoms: _311  and  _312
REMARK  124  A    between atoms: _315  and  _317
REMARK  125  A    between atoms: _317  and  _318
REMARK  126  A    between atoms: _317  and  _320
REMARK  127  A    between atoms: _323  and  _325
REMARK  128  A    between atoms: _325  and  _326
REMARK  129  A    between atoms: _325  and  _328
REMARK  130  A    between atoms: _328  and  _329
REMARK  131  A    between atoms: _333  and  _334
REMARK  132  A    between atoms: _339  and  _341
REMARK  133  A    between atoms: _341  and  _342
REMARK  134  A    between atoms: _341  and  _344
REMARK  135  A    between atoms: _344  and  _345
REMARK  136  A    between atoms: _345  and  _346
REMARK  137  A    between atoms: _349  and  _351
REMARK  138  A    between atoms: _351  and  _352
REMARK  139  A    between atoms: _355  and  _357
REMARK  140  A    between atoms: _357  and  _358
REMARK  141  A    between atoms: _357  and  _360
REMARK  142  A    between atoms: _360  and  _361
REMARK  143  A    between atoms: _364  and  _366
REMARK  144  A    between atoms: _366  and  _367
REMARK  145  A    between atoms: _366  and  _369
REMARK  146  A    between atoms: _369  and  _370
REMARK  147  A    between atoms: _370  and  _371
REMARK  148  A    between atoms: _374  and  _376
REMARK  149  A    between atoms: _376  and  _377
REMARK  150  A    between atoms: _376  and  _379
REMARK  151  A    between atoms: _379  and  _380
REMARK  152  A    between atoms: _385  and  _387
REMARK  153  A    between atoms: _387  and  _388
REMARK  154  A    between atoms: _390  and  _392
REMARK  155  A    between atoms: _392  and  _393
REMARK  156  A    between atoms: _392  and  _395
REMARK  157  A    between atoms: _398  and  _400
REMARK  158  A    between atoms: _400  and  _401
REMARK  159  A    between atoms: _404  and  _406
REMARK  160  A    between atoms: _406  and  _407
REMARK  161  A    between atoms: _406  and  _409
REMARK  162  A    between atoms: _409  and  _410
REMARK  163  A    between atoms: _415  and  _417
REMARK  164  A    between atoms: _417  and  _418
REMARK  165  A    between atoms: _417  and  _420
REMARK  166  A    between atoms: _420  and  _421
REMARK  167  A    between atoms: _421  and  _422
REMARK  168  A    between atoms: _422  and  _423
REMARK  169  A    between atoms: _423  and  _424
REMARK  170  A    between atoms: _428  and  _430
REMARK  171  A    between atoms: _430  and  _431
REMARK  172  A    between atoms: _430  and  _433
REMARK  173  A    between atoms: _433  and  _434
REMARK  174  A    between atoms: _437  and  _439
REMARK  175  A    between atoms: _439  and  _440
REMARK  176  A    between atoms: _439  and  _442
REMARK  177  A    between atoms: _442  and  _443
REMARK  178  A    between atoms: _448  and  _450
REMARK  179  A    between atoms: _450  and  _451
REMARK  180  A    between atoms: _453  and  _455
REMARK  181  A    between atoms: _455  and  _456
REMARK  182  A    between atoms: _455  and  _458
REMARK  183  A    between atoms: _458  and  _459
REMARK  184  A    between atoms: _459  and  _460
REMARK  185  A    between atoms: _460  and  _461
REMARK  186  A    between atoms: _461  and  _462
REMARK  187  A    between atoms: _466  and  _468
REMARK  188  A    between atoms: _468  and  _469
REMARK  189  A    between atoms: _468  and  _471
REMARK  190  A    between atoms: _471  and  _472
REMARK  191  A    between atoms: _472  and  _473
REMARK  192  A    between atoms: _473  and  _474
REMARK  193  A    between atoms: _483  and  _485
REMARK  194  A    between atoms: _485  and  _486
REMARK  195  A    between atoms: _485  and  _488
REMARK  196  A    between atoms: _488  and  _489
REMARK  197  A    between atoms: _494  and  _496
REMARK  198  A    between atoms: _496  and  _497
REMARK  199  A    between atoms: _496  and  _499
REMARK  200  A    between atoms: _499  and  _500
REMARK  201  A    between atoms: _505  and  _506
REMARK  202  A    between atoms: _508  and  _510
REMARK  203  A    between atoms: _510  and  _511
REMARK  204  A    between atoms: _510  and  _513
REMARK  205  A    between atoms: _513  and  _514
REMARK  206  A    between atoms: _514  and  _515
REMARK  207  A    between atoms: _515  and  _516
REMARK  208  A    between atoms: _516  and  _517
REMARK  209  A    between atoms: _521  and  _523
REMARK  210  A    between atoms: _523  and  _524
REMARK  211  A    between atoms: _523  and  _526
REMARK  212  A    between atoms: _526  and  _527
REMARK  213  A    between atoms: _529  and  _531
REMARK  214  A    between atoms: _531  and  _532
REMARK  215  A    between atoms: _531  and  _534
REMARK  216  A    between atoms: _534  and  _535
REMARK  217  A    between atoms: _538  and  _540
REMARK  218  A    between atoms: _540  and  _541
REMARK  219  A    between atoms: _540  and  _543
REMARK  220  A    between atoms: _543  and  _544
REMARK  221  A    between atoms: _544  and  _545
REMARK  222  A    between atoms: _548  and  _550
REMARK  223  A    between atoms: _550  and  _551
REMARK  224  A    between atoms: _554  and  _556
REMARK  225  A    between atoms: _556  and  _557
REMARK  226  A    between atoms: _556  and  _559
REMARK  227  A    between atoms: _559  and  _560
REMARK  228  A    between atoms: _562  and  _564
REMARK  229  A    between atoms: _564  and  _565
REMARK  230  A    between atoms: _567  and  _569
REMARK  231  A    between atoms: _569  and  _570
REMARK  232  A    between atoms: _569  and  _572
REMARK  233  A    between atoms: _572  and  _573
REMARK  234  A    between atoms: _576  and  _578
REMARK  235  A    between atoms: _578  and  _579
REMARK  236  A    between atoms: _581  and  _583
REMARK  237  A    between atoms: _583  and  _584
REMARK  238  A    between atoms: _583  and  _586
REMARK  239  A    between atoms: _586  and  _587
REMARK  240  A    between atoms: _592  and  _594
REMARK  241  A    between atoms: _594  and  _595
REMARK  242  A    between atoms: _594  and  _597
REMARK  243  A    between atoms: _597  and  _598
REMARK  244  A    between atoms: _598  and  _599
REMARK  245  A    between atoms: _606  and  _607
REMARK  246  A    between atoms: _607  and  _623
REMARK  247  A    between atoms: _608  and  _610
REMARK  248  A    between atoms: _610  and  _611
REMARK  249  A    between atoms: _611  and  _612
REMARK  250  A    between atoms: _616  and  _618
REMARK  251  A    between atoms: _618  and  _619
REMARK  252  A    between atoms: _618  and  _626
REMARK  253  A    between atoms: _619  and  _620
REMARK  254  A    between atoms: _620  and  _621
REMARK  255  A    between atoms: _621  and  _622
REMARK  256  A    between atoms: _622  and  _623
REMARK  257  A    between atoms: _628  and  _630
REMARK  258  A    between atoms: _630  and  _631
REMARK  259  A    between atoms: _630  and  _633
REMARK  260  A    between atoms: _633  and  _634
REMARK  261  A    between atoms: _637  and  _639
REMARK  262  A    between atoms: _639  and  _640
REMARK  263  A    between atoms: _642  and  _644
REMARK  264  A    between atoms: _644  and  _645
REMARK  265  A    between atoms: _648  and  _650
REMARK  266  A    between atoms: _650  and  _651
REMARK  267  A    between atoms: _650  and  _653
REMARK  268  A    between atoms: _653  and  _654
REMARK  269  A    between atoms: _659  and  _660
REMARK                            x       y       z     vdW  Elec       q    Type
REMARK                         _______ _______ _______ _____ _____    ______ ____
ROOT
ATOM      1  CA  GLU A   1      40.668  20.803  43.651  0.00  0.00    +0.134 C 
ENDROOT
BRANCH   1   2
ATOM      2  N   GLU A   1      40.242  21.908  44.503  0.00  0.00    -0.239 NA
ATOM      3  H   GLU A   1      40.664  22.848  44.363  0.00  0.00    +0.142 HD
ENDBRANCH   1   2
BRANCH   1   4
ATOM      4  C   GLU A   1      41.355  19.698  44.445  0.00  0.00    +0.224 C 
ATOM      5  O   GLU A   1      41.047  18.511  44.257  0.00  0.00    -0.287 OA
ENDBRANCH   1   4
BRANCH   1   6
ATOM      6  CB  GLU A   1      41.561  21.316  42.524  0.00  0.00    +0.037 C 
BRANCH   6   7
ATOM      7  CG  GLU A   1      40.805  22.126  41.482  0.00  0.00    +0.116 C 
BRANCH   7   8
ATOM      8  CD  GLU A   1      41.702  22.675  40.389  0.00  0.00    +0.365 C 
ATOM      9  OE2 GLU A   1      42.937  22.543  40.498  0.00  0.00    -0.246 OA
ATOM     10  OE1 GLU A   1      41.164  23.236  39.411  0.00  0.00    -0.246 OA
ENDBRANCH   7   8
ENDBRANCH   6   7
ENDBRANCH   1   6
TORSDOF 5
REMARK  Name = ../refined-set-2016/2pyi/2pyi_pocket.pdb
REMARK  269 active torsions:
REMARK  status: ('A' for Active; 'I' for Inactive)
REMARK    1  A    between atoms: _1  and  _3
REMARK    2  A    between atoms: _3  and  _4
REMARK    3  A    between atoms: _3  and  _6
REMARK    4  A    between atoms: _6  and  _7
REMARK    5  A    between atoms: _12  and  _13
REMARK    6  A    between atoms: _15  and  _17
REMARK    7  A    between atoms: _17  and  _18
REMARK    8  A    between atoms: _17  and  _20
REMARK    9  A    between atoms: _20  and  _21
REMARK   10  A    between atoms: _21  and  _22
REMARK   11  A    between atoms: _25  and  _27
REMARK   12  A    between atoms: _27  and  _28
REMARK   13  A    between atoms: _27  and  _30
REMARK   14  A    between atoms: _30  and  _31
REMARK   15  A    between atoms: _36  and  _38
REMARK   16  A    between atoms: _38  and  _39
REMARK   17  A    between atoms: _41  and  _43
REMARK   18  A    between atoms: _43  and  _44
REMARK   19  A    between atoms: _46  and  _48
REMARK   20  A    between atoms: _48  and  _49
REMARK   21  A    between atoms: _48  and  _51
REMARK   22  A    between atoms: _51  and  _52
REMARK   23  A    between atoms: _55  and  _57
REMARK   24  A    between atoms: _57  and  _58
REMARK   25  A    between atoms: _60  and  _62
REMARK   26  A    between atoms: _62  and  _63
REMARK   27  A    between atoms: _62  and  _65
REMARK   28  A    between atoms: _65  and  _66
REMARK   29  A    between atoms: _66  and  _67
REMARK   30  A    between atoms: _67  and  _68
REMARK   31  A    between atoms: _77  and  _79
REMARK   32  A    between atoms: _79  and  _80
REMARK   33  A    between atoms: _79  and  _82
REMARK   34  A    between atoms: _82  and  _83
REMARK   35  A    between atoms: _86  and  _88
REMARK   36  A    between atoms: _88  and  _89
REMARK   37  A    between atoms: _92  and  _94
REMARK   38  A    between atoms: _94  and  _95
REMARK   39  A    between atoms: _94  and  _97
REMARK   40  A    between atoms: _97  and  _98
REMARK   41  A    between atoms: _104  and  _106
REMARK   42  A    between atoms: _106  and  _107
REMARK   43  A    between atoms: _106  and  _109
REMARK   44  A    between atoms: _109  and  _110
REMARK   45  A    between atoms: _115  and  _116
REMARK   46  A    between atoms: _119  and  _120
REMARK   47  A    between atoms: _125  and  _127
REMARK   48  A    between atoms: _127  and  _128
REMARK   49  A    between atoms: _127  and  _130
REMARK   50  A    between atoms: _130  and  _131
REMARK   51  A    between atoms: _136  and  _138
REMARK   52  A    between atoms: _138  and  _139
REMARK   53  A    between atoms: _138  and  _141
REMARK   54  A    between atoms: _141  and  _142
REMARK   55  A    between atoms: _145  and  _147
REMARK   56  A    between atoms: _147  and  _148
REMARK   57  A    between atoms: _147  and  _150
REMARK   58  A    between atoms: _150  and  _151
REMARK   59  A    between atoms: _156  and  _158
REMARK   60  A    between atoms: _158  and  _159
REMARK   61  A    between atoms: _158  and  _161
REMARK   62  A    between atoms: _161  and  _162
REMARK   63  A    between atoms: _168  and  _170
REMARK   64  A    between atoms: _170  and  _171
REMARK   65  A    between atoms: _170  and  _173
REMARK   66  A    between atoms: _173  and  _174
REMARK   67  A    between atoms: _180  and  _182
REMARK   68  A    between atoms: _182  and  _183
REMARK   69  A    between atoms: _182  and  _185
REMARK   70  A    between atoms: _185  and  _186
REMARK   71  A    between atoms: _186  and  _187
REMARK   72  A    between atoms: _190  and  _192
REMARK   73  A    between atoms: _192  and  _193
REMARK   74  A    between atoms: _195  and  _197
REMARK   75  A    between atoms: _197  and  _198
REMARK   76  A    between atoms: _197  and  _200
REMARK   77  A    between atoms: _200  and  _201
REMARK   78  A    between atoms: _201  and  _202
REMARK   79  A    between atoms: _202  and  _203
REMARK   80  A    between atoms: _203  and  _204
REMARK   81  A    between atoms: _208  and  _210
REMARK   82  A    between atoms: _210  and  _211
REMARK   83  A    between atoms: _210  and  _213
REMARK   84  A    between atoms: _213  and  _214
REMARK   85  A    between atoms: _214  and  _215
REMARK   86  A    between atoms: _215  and  _216
REMARK   87  A    between atoms: _225  and  _227
REMARK   88  A    between atoms: _227  and  _228
REMARK   89  A    between atoms: _227  and  _230
REMARK   90  A    between atoms: _230  and  _231
REMARK   91  A    between atoms: _231  and  _232
REMARK   92  A    between atoms: _235  and  _237
REMARK   93  A    between atoms: _237  and  _238
REMARK   94  A    between atoms: _237  and  _240
REMARK   95  A    between atoms: _240  and  _241
REMARK   96  A    between atoms: _246  and  _248
REMARK   97  A    between atoms: _248  and  _249
REMARK   98  A    between atoms: _248  and  _251
REMARK   99  A    between atoms: _251  and  _252
REMARK  100  A    between atoms: _255  and  _257
REMARK  101  A    between atoms: _257  and  _258
REMARK  102  A    between atoms: _257  and  _260
REMARK  103  A    between atoms: _260  and  _261
REMARK  104  A    between atoms: _264  and  _266
REMARK  105  A    between atoms: _266  and  _267
REMARK  106  A    between atoms: _266  and  _269
REMARK  107  A    between atoms: _269  and  _270
REMARK  108  A    between atoms: _275  and  _277
REMARK  109  A    between atoms: _277  and  _278
REMARK  110  A    between atoms: _277  and  _280
REMARK  111  A    between atoms: _280  and  _281
REMARK  112  A    between atoms: _284  and  _286
REMARK  113  A    between atoms: _286  and  _287
REMARK  114  A    between atoms: _286  and  _289
REMARK  115  A    between atoms: _289  and  _290
REMARK  116  A    between atoms: _295  and  _297
REMARK  117  A    between atoms: _297  and  _298
REMARK  118  A    between atoms: _297  and  _300
REMARK  119  A    between atoms: _300  and  _301
REMARK  120  A    between atoms: _306  and  _308
REMARK  121  A    between atoms: _308  and  _309
REMARK  122  A    between atoms: _308  and  _311
REMARK  123  A    between atoms: _311  and  _312
REMARK  124  A    between atoms: _315  and  _317
REMARK  125  A    between atoms: _317  and  _318
REMARK  126  A    between atoms: _317  and  _320
REMARK  127  A    between atoms: _323  and  _325
REMARK  128  A    between atoms: _325  and  _326
REMARK  129  A    between atoms: _325  and  _328
REMARK  130  A    between atoms: _328  and  _329
REMARK  131  A    between atoms: _333  and  _334
REMARK  132  A    between atoms: _339  and  _341
REMARK  133  A    between atoms: _341  and  _342
REMARK  134  A    between atoms: _341  and  _344
REMARK  135  A    between atoms: _344  and  _345
REMARK  136  A    between atoms: _345  and  _346
REMARK  137  A    between atoms: _349  and  _351
REMARK  138  A    between atoms: _351  and  _352
REMARK  139  A    between atoms: _355  and  _357
REMARK  140  A    between atoms: _357  and  _358
REMARK  141  A    between atoms: _357  and  _360
REMARK  142  A    between atoms: _360  and  _361
REMARK  143  A    between atoms: _364  and  _366
REMARK  144  A    between atoms: _366  and  _367
REMARK  145  A    between atoms: _366  and  _369
REMARK  146  A    between atoms: _369  and  _370
REMARK  147  A    between atoms: _370  and  _371
REMARK  148  A    between atoms: _374  and  _376
REMARK  149  A    between atoms: _376  and  _377
REMARK  150  A    between atoms: _376  and  _379
REMARK  151  A    between atoms: _379  and  _380
REMARK  152  A    between atoms: _385  and  _387
REMARK  153  A    between atoms: _387  and  _388
REMARK  154  A    between atoms: _390  and  _392
REMARK  155  A    between atoms: _392  and  _393
REMARK  156  A    between atoms: _392  and  _395
REMARK  157  A    between atoms: _398  and  _400
REMARK  158  A    between atoms: _400  and  _401
REMARK  159  A    between atoms: _404  and  _406
REMARK  160  A    between atoms: _406  and  _407
REMARK  161  A    between atoms: _406  and  _409
REMARK  162  A    between atoms: _409  and  _410
REMARK  163  A    between atoms: _415  and  _417
REMARK  164  A    between atoms: _417  and  _418
REMARK  165  A    between atoms: _417  and  _420
REMARK  166  A    between atoms: _420  and  _421
REMARK  167  A    between atoms: _421  and  _422
REMARK  168  A    between atoms: _422  and  _423
REMARK  169  A    between atoms: _423  and  _424
REMARK  170  A    between atoms: _428  and  _430
REMARK  171  A    between atoms: _430  and  _431
REMARK  172  A    between atoms: _430  and  _433
REMARK  173  A    between atoms: _433  and  _434
REMARK  174  A    between atoms: _437  and  _439
REMARK  175  A    between atoms: _439  and  _440
REMARK  176  A    between atoms: _439  and  _442
REMARK  177  A    between atoms: _442  and  _443
REMARK  178  A    between atoms: _448  and  _450
REMARK  179  A    between atoms: _450  and  _451
REMARK  180  A    between atoms: _453  and  _455
REMARK  181  A    between atoms: _455  and  _456
REMARK  182  A    between atoms: _455  and  _458
REMARK  183  A    between atoms: _458  and  _459
REMARK  184  A    between atoms: _459  and  _460
REMARK  185  A    between atoms: _460  and  _461
REMARK  186  A    between atoms: _461  and  _462
REMARK  187  A    between atoms: _466  and  _468
REMARK  188  A    between atoms: _468  and  _469
REMARK  189  A    between atoms: _468  and  _471
REMARK  190  A    between atoms: _471  and  _472
REMARK  191  A    between atoms: _472  and  _473
REMARK  192  A    between atoms: _473  and  _474
REMARK  193  A    between atoms: _483  and  _485
REMARK  194  A    between atoms: _485  and  _486
REMARK  195  A    between atoms: _485  and  _488
REMARK  196  A    between atoms: _488  and  _489
REMARK  197  A    between atoms: _494  and  _496
REMARK  198  A    between atoms: _496  and  _497
REMARK  199  A    between atoms: _496  and  _499
REMARK  200  A    between atoms: _499  and  _500
REMARK  201  A    between atoms: _505  and  _506
REMARK  202  A    between atoms: _508  and  _510
REMARK  203  A    between atoms: _510  and  _511
REMARK  204  A    between atoms: _510  and  _513
REMARK  205  A    between atoms: _513  and  _514
REMARK  206  A    between atoms: _514  and  _515
REMARK  207  A    between atoms: _515  and  _516
REMARK  208  A    between atoms: _516  and  _517
REMARK  209  A    between atoms: _521  and  _523
REMARK  210  A    between atoms: _523  and  _524
REMARK  211  A    between atoms: _523  and  _526
REMARK  212  A    between atoms: _526  and  _527
REMARK  213  A    between atoms: _529  and  _531
REMARK  214  A    between atoms: _531  and  _532
REMARK  215  A    between atoms: _531  and  _534
REMARK  216  A    between atoms: _534  and  _535
REMARK  217  A    between atoms: _538  and  _540
REMARK  218  A    between atoms: _540  and  _541
REMARK  219  A    between atoms: _540  and  _543
REMARK  220  A    between atoms: _543  and  _544
REMARK  221  A    between atoms: _544  and  _545
REMARK  222  A    between atoms: _548  and  _550
REMARK  223  A    between atoms: _550  and  _551
REMARK  224  A    between atoms: _554  and  _556
REMARK  225  A    between atoms: _556  and  _557
REMARK  226  A    between atoms: _556  and  _559
REMARK  227  A    between atoms: _559  and  _560
REMARK  228  A    between atoms: _562  and  _564
REMARK  229  A    between atoms: _564  and  _565
REMARK  230  A    between atoms: _567  and  _569
REMARK  231  A    between atoms: _569  and  _570
REMARK  232  A    between atoms: _569  and  _572
REMARK  233  A    between atoms: _572  and  _573
REMARK  234  A    between atoms: _576  and  _578
REMARK  235  A    between atoms: _578  and  _579
REMARK  236  A    between atoms: _581  and  _583
REMARK  237  A    between atoms: _583  and  _584
REMARK  238  A    between atoms: _583  and  _586
REMARK  239  A    between atoms: _586  and  _587
REMARK  240  A    between atoms: _592  and  _594
REMARK  241  A    between atoms: _594  and  _595
REMARK  242  A    between atoms: _594  and  _597
REMARK  243  A    between atoms: _597  and  _598
REMARK  244  A    between atoms: _598  and  _599
REMARK  245  A    between atoms: _606  and  _607
REMARK  246  A    between atoms: _607  and  _623
REMARK  247  A    between atoms: _608  and  _610
REMARK  248  A    between atoms: _610  and  _611
REMARK  249  A    between atoms: _611  and  _612
REMARK  250  A    between atoms: _616  and  _618
REMARK  251  A    between atoms: _618  and  _619
REMARK  252  A    between atoms: _618  and  _626
REMARK  253  A    between atoms: _619  and  _620
REMARK  254  A    between atoms: _620  and  _621
REMARK  255  A    between atoms: _621  and  _622
REMARK  256  A    between atoms: _622  and  _623
REMARK  257  A    between atoms: _628  and  _630
REMARK  258  A    between atoms: _630  and  _631
REMARK  259  A    between atoms: _630  and  _633
REMARK  260  A    between atoms: _633  and  _634
REMARK  261  A    between atoms: _637  and  _639
REMARK  262  A    between atoms: _639  and  _640
REMARK  263  A    between atoms: _642  and  _644
REMARK  264  A    between atoms: _644  and  _645
REMARK  265  A    between atoms: _648  and  _650
REMARK  266  A    between atoms: _650  and  _651
REMARK  267  A    between atoms: _650  and  _653
REMARK  268  A    between atoms: _653  and  _654
REMARK  269  A    between atoms: _659  and  _660
REMARK                            x       y       z     vdW  Elec       q    Type
REMARK                         _______ _______ _______ _____ _____    ______ ____
ROOT
ATOM      1  C   ASP A   2      40.550  17.906  33.594  0.00  0.00    +0.241 C 
ATOM      2  O   ASP A   2      40.705  16.846  34.215  0.00  0.00    -0.273 OA
ATOM      3  N   THR A   3      41.409  18.917  33.687  0.00  0.00    -0.295 N 
ATOM      4  H   THR A   3      41.237  19.778  33.130  0.00  0.00    +0.150 HD
ENDROOT
BRANCH   1   5
ATOM      5  CA  ASP A   2      39.351  18.087  32.642  0.00  0.00    +0.160 C 
BRANCH   5   8
ATOM      6  C   ASN A   1      37.688  16.809  33.924  0.00  0.00    +0.239 C 
ATOM      7  O   ASN A   1      37.647  17.632  34.843  0.00  0.00    -0.274 OA
ATOM      8  N   ASP A   2      38.406  16.981  32.814  0.00  0.00    -0.297 N 
ATOM      9  H   ASP A   2      38.290  16.300  32.036  0.00  0.00    +0.150 HD
BRANCH   6  10
ATOM     10  CA  ASN A   1      36.915  15.499  34.014  0.00  0.00    +0.154 C 
BRANCH  10  11
ATOM     11  N   ASN A   1      37.708  14.561  34.800  0.00  0.00    -0.238 NA
ATOM     12  H   ASN A   1      37.449  14.400  35.794  0.00  0.00    +0.142 HD
ENDBRANCH  10  11
BRANCH  10  13
ATOM     13  CB  ASN A   1      35.540  15.717  34.664  0.00  0.00    +0.111 C 
BRANCH  13  14
ATOM     14  CG  ASN A   1      34.524  16.336  33.718  0.00  0.00    +0.221 C 
ATOM     15  ND2 ASN A   1      33.493  16.964  34.287  0.00  0.00    -0.329 N 
ATOM     16 HD21 ASN A   1      33.423  17.015  35.323  0.00  0.00    +0.145 HD
ATOM     17 HD22 ASN A   1      32.760  17.402  33.694  0.00  0.00    +0.145 HD
ATOM     18  OD1 ASN A   1      34.653  16.248  32.495  0.00  0.00    -0.275 OA
ENDBRANCH  13  14
ENDBRANCH  10  13
ENDBRANCH   6  10
ENDBRANCH   5   8
BRANCH   5  19
ATOM     19  CB  ASP A   2      38.652  19.450  32.830  0.00  0.00    +0.143 C 
BRANCH  19  20
ATOM     20  CG  ASP A   2      39.201  20.529  31.908  0.00  0.00    +0.367 C 
ATOM     21  OD2 ASP A   2      40.441  20.662  31.809  0.00  0.00    -0.246 OA
ATOM     22  OD1 ASP A   2      38.384  21.237  31.279  0.00  0.00    -0.246 OA
ENDBRANCH  19  20
ENDBRANCH   5  19
ENDBRANCH   1   5
BRANCH   3  23
ATOM     23  CA  THR A   3      42.590  18.854  34.551  0.00  0.00    +0.176 C 
BRANCH  23  24
ATOM     24  C   THR A   3      42.264  19.258  35.985  0.00  0.00    +0.243 C 
ATOM     25  O   THR A   3      43.136  19.247  36.860  0.00  0.00    -0.273 OA
ATOM     26  N   HIS A   4      41.008  19.613  36.228  0.00  0.00    -0.298 N 
ATOM     27  H   HIS A   4      40.297  19.532  35.473  0.00  0.00    +0.150 HD
BRANCH  26  28
ATOM     28  CA  HIS A   4      40.610  20.116  37.543  0.00  0.00    +0.143 C 
BRANCH  28  29
ATOM     29  C   HIS A   4      40.937  19.151  38.694  0.00  0.00    +0.227 C 
ATOM     30  O   HIS A   4      41.437  19.587  39.729  0.00  0.00    -0.286 OA
ENDBRANCH  28  29
BRANCH  28  31
ATOM     31  CB  HIS A   4      39.138  20.540  37.554  0.00  0.00    +0.075 C 
BRANCH  31  32
ATOM     32  CG  HIS A   4      38.769  21.482  36.447  0.00  0.00    +0.082 A 
ATOM     33  ND1 HIS A   4      37.493  21.558  35.933  0.00  0.00    -0.227 NA
ATOM     34  CE1 HIS A   4      37.460  22.469  34.977  0.00  0.00    +0.199 A 
ATOM     35  NE2 HIS A   4      38.672  22.981  34.845  0.00  0.00    -0.221 NA
ATOM     36  CD2 HIS A   4      39.510  22.379  35.751  0.00  0.00    +0.115 A 
ENDBRANCH  31  32
ENDBRANCH  28  31
ENDBRANCH  26  28
ENDBRANCH  23  24
BRANCH  23  37
ATOM     37  CB  THR A   3      43.727  19.765  34.041  0.00  0.00    +0.137 C 
ATOM     38  CG2 THR A   3      44.143  19.380  32.628  0.00  0.00    +0.034 C 
BRANCH  37  39
ATOM     39  OG1 THR A   3      43.286  21.128  34.058  0.00  0.00    -0.382 OA
ATOM     40  HG1 THR A   3      43.045  21.384  34.983  0.00  0.00    +0.210 HD
ENDBRANCH  37  39
ENDBRANCH  23  37
ENDBRANCH   3  23
TORSDOF 16
REMARK  Name = ../refined-set-2016/2pyi/2pyi_pocket.pdb
REMARK  269 active torsions:
REMARK  status: ('A' for Active; 'I' for Inactive)
REMARK    1  A    between atoms: _1  and  _3
REMARK    2  A    between atoms: _3  and  _4
REMARK    3  A    between atoms: _3  and  _6
REMARK    4  A    between atoms: _6  and  _7
REMARK    5  A    between atoms: _12  and  _13
REMARK    6  A    between atoms: _15  and  _17
REMARK    7  A    between atoms: _17  and  _18
REMARK    8  A    between atoms: _17  and  _20
REMARK    9  A    between atoms: _20  and  _21
REMARK   10  A    between atoms: _21  and  _22
REMARK   11  A    between atoms: _25  and  _27
REMARK   12  A    between atoms: _27  and  _28
REMARK   13  A    between atoms: _27  and  _30
REMARK   14  A    between atoms: _30  and  _31
REMARK   15  A    between atoms: _36  and  _38
REMARK   16  A    between atoms: _38  and  _39
REMARK   17  A    between atoms: _41  and  _43
REMARK   18  A    between atoms: _43  and  _44
REMARK   19  A    between atoms: _46  and  _48
REMARK   20  A    between atoms: _48  and  _49
REMARK   21  A    between atoms: _48  and  _51
REMARK   22  A    between atoms: _51  and  _52
REMARK   23  A    between atoms: _55  and  _57
REMARK   24  A    between atoms: _57  and  _58
REMARK   25  A    between atoms: _60  and  _62
REMARK   26  A    between atoms: _62  and  _63
REMARK   27  A    between atoms: _62  and  _65
REMARK   28  A    between atoms: _65  and  _66
REMARK   29  A    between atoms: _66  and  _67
REMARK   30  A    between atoms: _67  and  _68
REMARK   31  A    between atoms: _77  and  _79
REMARK   32  A    between atoms: _79  and  _80
REMARK   33  A    between atoms: _79  and  _82
REMARK   34  A    between atoms: _82  and  _83
REMARK   35  A    between atoms: _86  and  _88
REMARK   36  A    between atoms: _88  and  _89
REMARK   37  A    between atoms: _92  and  _94
REMARK   38  A    between atoms: _94  and  _95
REMARK   39  A    between atoms: _94  and  _97
REMARK   40  A    between atoms: _97  and  _98
REMARK   41  A    between atoms: _104  and  _106
REMARK   42  A    between atoms: _106  and  _107
REMARK   43  A    between atoms: _106  and  _109
REMARK   44  A    between atoms: _109  and  _110
REMARK   45  A    between atoms: _115  and  _116
REMARK   46  A    between atoms: _119  and  _120
REMARK   47  A    between atoms: _125  and  _127
REMARK   48  A    between atoms: _127  and  _128
REMARK   49  A    between atoms: _127  and  _130
REMARK   50  A    between atoms: _130  and  _131
REMARK   51  A    between atoms: _136  and  _138
REMARK   52  A    between atoms: _138  and  _139
REMARK   53  A    between atoms: _138  and  _141
REMARK   54  A    between atoms: _141  and  _142
REMARK   55  A    between atoms: _145  and  _147
REMARK   56  A    between atoms: _147  and  _148
REMARK   57  A    between atoms: _147  and  _150
REMARK   58  A    between atoms: _150  and  _151
REMARK   59  A    between atoms: _156  and  _158
REMARK   60  A    between atoms: _158  and  _159
REMARK   61  A    between atoms: _158  and  _161
REMARK   62  A    between atoms: _161  and  _162
REMARK   63  A    between atoms: _168  and  _170
REMARK   64  A    between atoms: _170  and  _171
REMARK   65  A    between atoms: _170  and  _173
REMARK   66  A    between atoms: _173  and  _174
REMARK   67  A    between atoms: _180  and  _182
REMARK   68  A    between atoms: _182  and  _183
REMARK   69  A    between atoms: _182  and  _185
REMARK   70  A    between atoms: _185  and  _186
REMARK   71  A    between atoms: _186  and  _187
REMARK   72  A    between atoms: _190  and  _192
REMARK   73  A    between atoms: _192  and  _193
REMARK   74  A    between atoms: _195  and  _197
REMARK   75  A    between atoms: _197  and  _198
REMARK   76  A    between atoms: _197  and  _200
REMARK   77  A    between atoms: _200  and  _201
REMARK   78  A    between atoms: _201  and  _202
REMARK   79  A    between atoms: _202  and  _203
REMARK   80  A    between atoms: _203  and  _204
REMARK   81  A    between atoms: _208  and  _210
REMARK   82  A    between atoms: _210  and  _211
REMARK   83  A    between atoms: _210  and  _213
REMARK   84  A    between atoms: _213  and  _214
REMARK   85  A    between atoms: _214  and  _215
REMARK   86  A    between atoms: _215  and  _216
REMARK   87  A    between atoms: _225  and  _227
REMARK   88  A    between atoms: _227  and  _228
REMARK   89  A    between atoms: _227  and  _230
REMARK   90  A    between atoms: _230  and  _231
REMARK   91  A    between atoms: _231  and  _232
REMARK   92  A    between atoms: _235  and  _237
REMARK   93  A    between atoms: _237  and  _238
REMARK   94  A    between atoms: _237  and  _240
REMARK   95  A    between atoms: _240  and  _241
REMARK   96  A    between atoms: _246  and  _248
REMARK   97  A    between atoms: _248  and  _249
REMARK   98  A    between atoms: _248  and  _251
REMARK   99  A    between atoms: _251  and  _252
REMARK  100  A    between atoms: _255  and  _257
REMARK  101  A    between atoms: _257  and  _258
REMARK  102  A    between atoms: _257  and  _260
REMARK  103  A    between atoms: _260  and  _261
REMARK  104  A    between atoms: _264  and  _266
REMARK  105  A    between atoms: _266  and  _267
REMARK  106  A    between atoms: _266  and  _269
REMARK  107  A    between atoms: _269  and  _270
REMARK  108  A    between atoms: _275  and  _277
REMARK  109  A    between atoms: _277  and  _278
REMARK  110  A    between atoms: _277  and  _280
REMARK  111  A    between atoms: _280  and  _281
REMARK  112  A    between atoms: _284  and  _286
REMARK  113  A    between atoms: _286  and  _287
REMARK  114  A    between atoms: _286  and  _289
REMARK  115  A    between atoms: _289  and  _290
REMARK  116  A    between atoms: _295  and  _297
REMARK  117  A    between atoms: _297  and  _298
REMARK  118  A    between atoms: _297  and  _300
REMARK  119  A    between atoms: _300  and  _301
REMARK  120  A    between atoms: _306  and  _308
REMARK  121  A    between atoms: _308  and  _309
REMARK  122  A    between atoms: _308  and  _311
REMARK  123  A    between atoms: _311  and  _312
REMARK  124  A    between atoms: _315  and  _317
REMARK  125  A    between atoms: _317  and  _318
REMARK  126  A    between atoms: _317  and  _320
REMARK  127  A    between atoms: _323  and  _325
REMARK  128  A    between atoms: _325  and  _326
REMARK  129  A    between atoms: _325  and  _328
REMARK  130  A    between atoms: _328  and  _329
REMARK  131  A    between atoms: _333  and  _334
REMARK  132  A    between atoms: _339  and  _341
REMARK  133  A    between atoms: _341  and  _342
REMARK  134  A    between atoms: _341  and  _344
REMARK  135  A    between atoms: _344  and  _345
REMARK  136  A    between atoms: _345  and  _346
REMARK  137  A    between atoms: _349  and  _351
REMARK  138  A    between atoms: _351  and  _352
REMARK  139  A    between atoms: _355  and  _357
REMARK  140  A    between atoms: _357  and  _358
REMARK  141  A    between atoms: _357  and  _360
REMARK  142  A    between atoms: _360  and  _361
REMARK  143  A    between atoms: _364  and  _366
REMARK  144  A    between atoms: _366  and  _367
REMARK  145  A    between atoms: _366  and  _369
REMARK  146  A    between atoms: _369  and  _370
REMARK  147  A    between atoms: _370  and  _371
REMARK  148  A    between atoms: _374  and  _376
REMARK  149  A    between atoms: _376  and  _377
REMARK  150  A    between atoms: _376  and  _379
REMARK  151  A    between atoms: _379  and  _380
REMARK  152  A    between atoms: _385  and  _387
REMARK  153  A    between atoms: _387  and  _388
REMARK  154  A    between atoms: _390  and  _392
REMARK  155  A    between atoms: _392  and  _393
REMARK  156  A    between atoms: _392  and  _395
REMARK  157  A    between atoms: _398  and  _400
REMARK  158  A    between atoms: _400  and  _401
REMARK  159  A    between atoms: _404  and  _406
REMARK  160  A    between atoms: _406  and  _407
REMARK  161  A    between atoms: _406  and  _409
REMARK  162  A    between atoms: _409  and  _410
REMARK  163  A    between atoms: _415  and  _417
REMARK  164  A    between atoms: _417  and  _418
REMARK  165  A    between atoms: _417  and  _420
REMARK  166  A    between atoms: _420  and  _421
REMARK  167  A    between atoms: _421  and  _422
REMARK  168  A    between atoms: _422  and  _423
REMARK  169  A    between atoms: _423  and  _424
REMARK  170  A    between atoms: _428  and  _430
REMARK  171  A    between atoms: _430  and  _431
REMARK  172  A    between atoms: _430  and  _433
REMARK  173  A    between atoms: _433  and  _434
REMARK  174  A    between atoms: _437  and  _439
REMARK  175  A    between atoms: _439  and  _440
REMARK  176  A    between atoms: _439  and  _442
REMARK  177  A    between atoms: _442  and  _443
REMARK  178  A    between atoms: _448  and  _450
REMARK  179  A    between atoms: _450  and  _451
REMARK  180  A    between atoms: _453  and  _455
REMARK  181  A    between atoms: _455  and  _456
REMARK  182  A    between atoms: _455  and  _458
REMARK  183  A    between atoms: _458  and  _459
REMARK  184  A    between atoms: _459  and  _460
REMARK  185  A    between atoms: _460  and  _461
REMARK  186  A    between atoms: _461  and  _462
REMARK  187  A    between atoms: _466  and  _468
REMARK  188  A    between atoms: _468  and  _469
REMARK  189  A    between atoms: _468  and  _471
REMARK  190  A    between atoms: _471  and  _472
REMARK  191  A    between atoms: _472  and  _473
REMARK  192  A    between atoms: _473  and  _474
REMARK  193  A    between atoms: _483  and  _485
REMARK  194  A    between atoms: _485  and  _486
REMARK  195  A    between atoms: _485  and  _488
REMARK  196  A    between atoms: _488  and  _489
REMARK  197  A    between atoms: _494  and  _496
REMARK  198  A    between atoms: _496  and  _497
REMARK  199  A    between atoms: _496  and  _499
REMARK  200  A    between atoms: _499  and  _500
REMARK  201  A    between atoms: _505  and  _506
REMARK  202  A    between atoms: _508  and  _510
REMARK  203  A    between atoms: _510  and  _511
REMARK  204  A    between atoms: _510  and  _513
REMARK  205  A    between atoms: _513  and  _514
REMARK  206  A    between atoms: _514  and  _515
REMARK  207  A    between atoms: _515  and  _516
REMARK  208  A    between atoms: _516  and  _517
REMARK  209  A    between atoms: _521  and  _523
REMARK  210  A    between atoms: _523  and  _524
REMARK  211  A    between atoms: _523  and  _526
REMARK  212  A    between atoms: _526  and  _527
REMARK  213  A    between atoms: _529  and  _531
REMARK  214  A    between atoms: _531  and  _532
REMARK  215  A    between atoms: _531  and  _534
REMARK  216  A    between atoms: _534  and  _535
REMARK  217  A    between atoms: _538  and  _540
REMARK  218  A    between atoms: _540  and  _541
REMARK  219  A    between atoms: _540  and  _543
REMARK  220  A    between atoms: _543  and  _544
REMARK  221  A    between atoms: _544  and  _545
REMARK  222  A    between atoms: _548  and  _550
REMARK  223  A    between atoms: _550  and  _551
REMARK  224  A    between atoms: _554  and  _556
REMARK  225  A    between atoms: _556  and  _557
REMARK  226  A    between atoms: _556  and  _559
REMARK  227  A    between atoms: _559  and  _560
REMARK  228  A    between atoms: _562  and  _564
REMARK  229  A    between atoms: _564  and  _565
REMARK  230  A    between atoms: _567  and  _569
REMARK  231  A    between atoms: _569  and  _570
REMARK  232  A    between atoms: _569  and  _572
REMARK  233  A    between atoms: _572  and  _573
REMARK  234  A    between atoms: _576  and  _578
REMARK  235  A    between atoms: _578  and  _579
REMARK  236  A    between atoms: _581  and  _583
REMARK  237  A    between atoms: _583  and  _584
REMARK  238  A    between atoms: _583  and  _586
REMARK  239  A    between atoms: _586  and  _587
REMARK  240  A    between atoms: _592  and  _594
REMARK  241  A    between atoms: _594  and  _595
REMARK  242  A    between atoms: _594  and  _597
REMARK  243  A    between atoms: _597  and  _598
REMARK  244  A    between atoms: _598  and  _599
REMARK  245  A    between atoms: _606  and  _607
REMARK  246  A    between atoms: _607  and  _623
REMARK  247  A    between atoms: _608  and  _610
REMARK  248  A    between atoms: _610  and  _611
REMARK  249  A    between atoms: _611  and  _612
REMARK  250  A    between atoms: _616  and  _618
REMARK  251  A    between atoms: _618  and  _619
REMARK  252  A    between atoms: _618  and  _626
REMARK  253  A    between atoms: _619  and  _620
REMARK  254  A    between atoms: _620  and  _621
REMARK  255  A    between atoms: _621  and  _622
REMARK  256  A    between atoms: _622  and  _623
REMARK  257  A    between atoms: _628  and  _630
REMARK  258  A    between atoms: _630  and  _631
REMARK  259  A    between atoms: _630  and  _633
REMARK  260  A    between atoms: _633  and  _634
REMARK  261  A    between atoms: _637  and  _639
REMARK  262  A    between atoms: _639  and  _640
REMARK  263  A    between atoms: _642  and  _644
REMARK  264  A    between atoms: _644  and  _645
REMARK  265  A    between atoms: _648  and  _650
REMARK  266  A    between atoms: _650  and  _651
REMARK  267  A    between atoms: _650  and  _653
REMARK  268  A    between atoms: _653  and  _654
REMARK  269  A    between atoms: _659  and  _660
REMARK                            x       y       z     vdW  Elec       q    Type
REMARK                         _______ _______ _______ _____ _____    ______ ____
ROOT
ATOM      1  C   VAL A   5      42.291  25.396  23.210  0.00  0.00    +0.241 C 
ATOM      2  N   LEU A   6      41.366  26.227  23.692  0.00  0.00    -0.297 N 
ATOM      3  H   LEU A   6      40.401  25.879  23.860  0.00  0.00    +0.150 HD
ATOM      4  O   VAL A   5      43.447  25.741  22.994  0.00  0.00    -0.273 OA
ENDROOT
BRANCH   2   5
ATOM      5  CA  LEU A   6      41.691  27.621  23.988  0.00  0.00    +0.149 C 
BRANCH   5   6
ATOM      6  C   LEU A   6      42.737  27.662  25.101  0.00  0.00    +0.244 C 
ATOM      7  O   LEU A   6      42.491  27.160  26.200  0.00  0.00    -0.273 OA
ATOM      8  N   PRO A   7      43.916  28.243  24.809  0.00  0.00    -0.272 N 
ATOM      9  CA  PRO A   7      45.064  28.158  25.721  0.00  0.00    +0.152 C 
ATOM     10  CB  PRO A   7      46.183  28.869  24.950  0.00  0.00    +0.031 C 
ATOM     11  CG  PRO A   7      45.471  29.764  23.983  0.00  0.00    +0.024 C 
ATOM     12  CD  PRO A   7      44.231  29.021  23.596  0.00  0.00    +0.094 C 
BRANCH   9  13
ATOM     13  C   PRO A   7      44.834  28.818  27.082  0.00  0.00    +0.241 C 
ATOM     14  O   PRO A   7      45.401  28.372  28.081  0.00  0.00    -0.273 OA
ATOM     15  N   GLU A   8      44.000  29.854  27.122  0.00  0.00    -0.297 N 
ATOM     16  H   GLU A   8      43.532  30.160  26.245  0.00  0.00    +0.150 HD
BRANCH  15  17
ATOM     17  CA  GLU A   8      43.723  30.576  28.366  0.00  0.00    +0.149 C 
BRANCH  17  18
ATOM     18  C   GLU A   8      42.856  29.774  29.354  0.00  0.00    +0.241 C 
ATOM     19  O   GLU A   8      42.695  30.166  30.511  0.00  0.00    -0.273 OA
ATOM     20  N   ALA A   9      42.318  28.648  28.891  0.00  0.00    -0.297 N 
ATOM     21  H   ALA A   9      42.468  28.394  27.894  0.00  0.00    +0.150 HD
BRANCH  20  22
ATOM     22  CA  ALA A   9      41.523  27.755  29.735  0.00  0.00    +0.149 C 
ATOM     23  CB  ALA A   9      40.463  27.050  28.904  0.00  0.00    +0.031 C 
BRANCH  22  24
ATOM     24  C   ALA A   9      42.397  26.732  30.470  0.00  0.00    +0.241 C 
ATOM     25  O   ALA A   9      41.968  26.137  31.463  0.00  0.00    -0.273 OA
ATOM     26  N   LEU A  10      43.624  26.547  29.985  0.00  0.00    -0.297 N 
ATOM     27  H   LEU A  10      43.929  27.113  29.167  0.00  0.00    +0.150 HD
BRANCH  26  28
ATOM     28  CA  LEU A  10      44.557  25.580  30.558  0.00  0.00    +0.149 C 
BRANCH  28  29
ATOM     29  C   LEU A  10      45.029  25.973  31.956  0.00  0.00    +0.241 C 
ATOM     30  N   GLU A  11      45.072  24.988  32.851  0.00  0.00    -0.298 N 
ATOM     31  H   GLU A  11      44.757  24.038  32.568  0.00  0.00    +0.150 HD
ATOM     32  O   LEU A  10      45.335  27.140  32.216  0.00  0.00    -0.273 OA
BRANCH  30  33
ATOM     33  CA  GLU A  11      45.545  25.195  34.215  0.00  0.00    +0.137 C 
BRANCH  33  34
ATOM     34  C   GLU A  11      47.056  25.076  34.287  0.00  0.00    +0.227 C 
ATOM     35  O   GLU A  11      47.617  24.015  34.004  0.00  0.00    -0.286 OA
ENDBRANCH  33  34
BRANCH  33  36
ATOM     36  CB  GLU A  11      44.921  24.176  35.169  0.00  0.00    +0.039 C 
BRANCH  36  37
ATOM     37  CG  GLU A  11      43.442  24.367  35.407  0.00  0.00    +0.116 C 
BRANCH  37  38
ATOM     38  CD  GLU A  11      42.944  23.518  36.547  0.00  0.00    +0.365 C 
ATOM     39  OE2 GLU A  11      42.435  24.105  37.518  0.00  0.00    -0.246 OA
ATOM     40  OE1 GLU A  11      43.064  22.272  36.475  0.00  0.00    -0.246 OA
ENDBRANCH  37  38
ENDBRANCH  36  37
ENDBRANCH  33  36
ENDBRANCH  30  33
ENDBRANCH  28  29
BRANCH  28  41
ATOM     41  CB  LEU A  10      45.764  25.380  29.631  0.00  0.00    +0.029 C 
BRANCH  41  42
ATOM     42  CG  LEU A  10      45.534  24.631  28.312  0.00  0.00    +0.002 C 
ATOM     43  CD2 LEU A  10      45.206  23.159  28.554  0.00  0.00    +0.000 C 
ATOM     44  CD1 LEU A  10      46.745  24.770  27.389  0.00  0.00    +0.000 C 
ENDBRANCH  41  42
ENDBRANCH  28  41
ENDBRANCH  26  28
ENDBRANCH  22  24
ENDBRANCH  20  22
ENDBRANCH  17  18
BRANCH  17  45
ATOM     45  CB  GLU A   8      43.110  31.957  28.078  0.00  0.00    +0.041 C 
BRANCH  45  46
ATOM     46  CG  GLU A   8      41.692  31.948  27.489  0.00  0.00    +0.116 C 
BRANCH  46  47
ATOM     47  CD  GLU A   8      41.652  31.920  25.964  0.00  0.00    +0.365 C 
ATOM     48  OE2 GLU A   8      40.579  32.219  25.401  0.00  0.00    -0.246 OA
ATOM     49  OE1 GLU A   8      42.676  31.598  25.324  0.00  0.00    -0.246 OA
ENDBRANCH  46  47
ENDBRANCH  45  46
ENDBRANCH  17  45
ENDBRANCH  15  17
ENDBRANCH   9  13
ENDBRANCH   5   6
BRANCH   5  50
ATOM     50  CB  LEU A   6      40.444  28.425  24.373  0.00  0.00    +0.029 C 
BRANCH  50  51
ATOM     51  CG  LEU A   6      39.320  28.619  23.345  0.00  0.00    +0.002 C 
ATOM     52  CD2 LEU A   6      38.260  29.542  23.923  0.00  0.00    +0.000 C 
ATOM     53  CD1 LEU A   6      39.832  29.170  22.017  0.00  0.00    +0.000 C 
ENDBRANCH  50  51
ENDBRANCH   5  50
ENDBRANCH   2   5
BRANCH   1  54
ATOM     54  CA  VAL A   5      41.860  23.957  22.931  0.00  0.00    +0.149 C 
BRANCH  54  57
ATOM     55  C   THR A   4      40.440  22.876  24.603  0.00  0.00    +0.243 C 
ATOM     56  O   THR A   4      41.386  22.330  25.173  0.00  0.00    -0.273 OA
ATOM     57  N   VAL A   5      40.564  23.658  23.532  0.00  0.00    -0.297 N 
ATOM     58  H   VAL A   5      39.708  24.070  23.109  0.00  0.00    +0.150 HD
BRANCH  55  59
ATOM     59  CA  THR A   4      39.024  22.687  25.108  0.00  0.00    +0.176 C 
BRANCH  59  62
ATOM     60  C   HIS A   3      37.662  21.101  26.354  0.00  0.00    +0.241 C 
ATOM     61  O   HIS A   3      36.674  21.810  26.182  0.00  0.00    -0.273 OA
ATOM     62  N   THR A   4      38.867  21.469  25.933  0.00  0.00    -0.295 N 
ATOM     63  H   THR A   4      39.701  20.900  26.184  0.00  0.00    +0.150 HD
BRANCH  60  64
ATOM     64  CA  HIS A   3      37.511  19.759  27.088  0.00  0.00    +0.155 C 
BRANCH  64  66
ATOM     65  C   ASN A   2      39.063  17.854  27.053  0.00  0.00    +0.241 C 
ATOM     66  N   HIS A   3      38.748  19.077  27.492  0.00  0.00    -0.297 N 
ATOM     67  H   HIS A   3      39.400  19.562  28.141  0.00  0.00    +0.150 HD
ATOM     68  O   ASN A   2      38.402  17.251  26.205  0.00  0.00    -0.273 OA
BRANCH  65  69
ATOM     69  CA  ASN A   2      40.311  17.205  27.648  0.00  0.00    +0.158 C 
BRANCH  69  72
ATOM     70  C   THR A   1      39.601  15.413  29.183  0.00  0.00    +0.241 C 
ATOM     71  O   THR A   1      39.446  16.174  30.143  0.00  0.00    -0.274 OA
ATOM     72  N   ASN A   2      40.022  15.812  27.987  0.00  0.00    -0.297 N 
ATOM     73  H   ASN A   2      40.154  15.091  27.249  0.00  0.00    +0.150 HD
BRANCH  70  74
ATOM     74  CA  THR A   1      39.316  13.915  29.311  0.00  0.00    +0.172 C 
BRANCH  74  75
ATOM     75  N   THR A   1      40.143  13.335  30.359  0.00  0.00    -0.236 NA
ATOM     76  H   THR A   1      39.910  13.539  31.352  0.00  0.00    +0.142 HD
ENDBRANCH  74  75
BRANCH  74  77
ATOM     77  CB  THR A   1      37.806  13.686  29.563  0.00  0.00    +0.135 C 
ATOM     78  CG2 THR A   1      36.979  14.231  28.406  0.00  0.00    +0.034 C 
BRANCH  77  79
ATOM     79  OG1 THR A   1      37.541  12.284  29.703  0.00  0.00    -0.383 OA
ATOM     80  HG1 THR A   1      37.809  11.814  28.874  0.00  0.00    +0.210 HD
ENDBRANCH  77  79
ENDBRANCH  74  77
ENDBRANCH  70  74
ENDBRANCH  69  72
BRANCH  69  81
ATOM     81  CB  ASN A   2      41.482  17.252  26.654  0.00  0.00    +0.114 C 
BRANCH  81  82
ATOM     82  CG  ASN A   2      41.750  18.643  26.123  0.00  0.00    +0.222 C 
ATOM     83  ND2 ASN A   2      42.818  19.260  26.613  0.00  0.00    -0.329 N 
ATOM     84 HD21 ASN A   2      43.410  18.788  27.326  0.00  0.00    +0.145 HD
ATOM     85 HD22 ASN A   2      43.063  20.216  26.284  0.00  0.00    +0.145 HD
ATOM     86  OD1 ASN A   2      41.014  19.158  25.276  0.00  0.00    -0.275 OA
ENDBRANCH  81  82
ENDBRANCH  69  81
ENDBRANCH  65  69
ENDBRANCH  64  66
BRANCH  64  87
ATOM     87  CB  HIS A   3      36.600  19.990  28.300  0.00  0.00    +0.076 C 
BRANCH  87  88
ATOM     88  CG  HIS A   3      36.126  18.735  28.958  0.00  0.00    +0.082 A 
ATOM     89  CD2 HIS A   3      36.658  18.002  29.965  0.00  0.00    +0.115 A 
ATOM     90  NE2 HIS A   3      35.804  16.952  30.196  0.00  0.00    -0.221 NA
ATOM     91  CE1 HIS A   3      34.779  17.043  29.366  0.00  0.00    +0.199 A 
ATOM     92  ND1 HIS A   3      34.948  18.111  28.609  0.00  0.00    -0.227 NA
ENDBRANCH  87  88
ENDBRANCH  64  87
ENDBRANCH  60  64
ENDBRANCH  59  62
BRANCH  59  93
ATOM     93  CB  THR A   4      38.525  23.992  25.816  0.00  0.00    +0.137 C 
ATOM     94  CG2 THR A   4      39.270  24.238  27.121  0.00  0.00    +0.034 C 
BRANCH  93  95
ATOM     95  OG1 THR A   4      38.684  25.124  24.941  0.00  0.00    -0.382 OA
ATOM     96  HG1 THR A   4      38.155  24.979  24.117  0.00  0.00    +0.210 HD
ENDBRANCH  93  95
ENDBRANCH  59  93
ENDBRANCH  55  59
ENDBRANCH  54  57
BRANCH  54  97
ATOM     97  CB  VAL A   5      41.891  23.678  21.402  0.00  0.00    +0.027 C 
ATOM     98  CG2 VAL A   5      41.481  22.236  21.108  0.00  0.00    +0.002 C 
ATOM     99  CG1 VAL A   5      41.013  24.673  20.630  0.00  0.00    +0.002 C 
ENDBRANCH  54  97
ENDBRANCH   1  54
TORSDOF 40
REMARK  Name = ../refined-set-2016/2pyi/2pyi_pocket.pdb
REMARK  269 active torsions:
REMARK  status: ('A' for Active; 'I' for Inactive)
REMARK    1  A    between atoms: _1  and  _3
REMARK    2  A    between atoms: _3  and  _4
REMARK    3  A    between atoms: _3  and  _6
REMARK    4  A    between atoms: _6  and  _7
REMARK    5  A    between atoms: _12  and  _13
REMARK    6  A    between atoms: _15  and  _17
REMARK    7  A    between atoms: _17  and  _18
REMARK    8  A    between atoms: _17  and  _20
REMARK    9  A    between atoms: _20  and  _21
REMARK   10  A    between atoms: _21  and  _22
REMARK   11  A    between atoms: _25  and  _27
REMARK   12  A    between atoms: _27  and  _28
REMARK   13  A    between atoms: _27  and  _30
REMARK   14  A    between atoms: _30  and  _31
REMARK   15  A    between atoms: _36  and  _38
REMARK   16  A    between atoms: _38  and  _39
REMARK   17  A    between atoms: _41  and  _43
REMARK   18  A    between atoms: _43  and  _44
REMARK   19  A    between atoms: _46  and  _48
REMARK   20  A    between atoms: _48  and  _49
REMARK   21  A    between atoms: _48  and  _51
REMARK   22  A    between atoms: _51  and  _52
REMARK   23  A    between atoms: _55  and  _57
REMARK   24  A    between atoms: _57  and  _58
REMARK   25  A    between atoms: _60  and  _62
REMARK   26  A    between atoms: _62  and  _63
REMARK   27  A    between atoms: _62  and  _65
REMARK   28  A    between atoms: _65  and  _66
REMARK   29  A    between atoms: _66  and  _67
REMARK   30  A    between atoms: _67  and  _68
REMARK   31  A    between atoms: _77  and  _79
REMARK   32  A    between atoms: _79  and  _80
REMARK   33  A    between atoms: _79  and  _82
REMARK   34  A    between atoms: _82  and  _83
REMARK   35  A    between atoms: _86  and  _88
REMARK   36  A    between atoms: _88  and  _89
REMARK   37  A    between atoms: _92  and  _94
REMARK   38  A    between atoms: _94  and  _95
REMARK   39  A    between atoms: _94  and  _97
REMARK   40  A    between atoms: _97  and  _98
REMARK   41  A    between atoms: _104  and  _106
REMARK   42  A    between atoms: _106  and  _107
REMARK   43  A    between atoms: _106  and  _109
REMARK   44  A    between atoms: _109  and  _110
REMARK   45  A    between atoms: _115  and  _116
REMARK   46  A    between atoms: _119  and  _120
REMARK   47  A    between atoms: _125  and  _127
REMARK   48  A    between atoms: _127  and  _128
REMARK   49  A    between atoms: _127  and  _130
REMARK   50  A    between atoms: _130  and  _131
REMARK   51  A    between atoms: _136  and  _138
REMARK   52  A    between atoms: _138  and  _139
REMARK   53  A    between atoms: _138  and  _141
REMARK   54  A    between atoms: _141  and  _142
REMARK   55  A    between atoms: _145  and  _147
REMARK   56  A    between atoms: _147  and  _148
REMARK   57  A    between atoms: _147  and  _150
REMARK   58  A    between atoms: _150  and  _151
REMARK   59  A    between atoms: _156  and  _158
REMARK   60  A    between atoms: _158  and  _159
REMARK   61  A    between atoms: _158  and  _161
REMARK   62  A    between atoms: _161  and  _162
REMARK   63  A    between atoms: _168  and  _170
REMARK   64  A    between atoms: _170  and  _171
REMARK   65  A    between atoms: _170  and  _173
REMARK   66  A    between atoms: _173  and  _174
REMARK   67  A    between atoms: _180  and  _182
REMARK   68  A    between atoms: _182  and  _183
REMARK   69  A    between atoms: _182  and  _185
REMARK   70  A    between atoms: _185  and  _186
REMARK   71  A    between atoms: _186  and  _187
REMARK   72  A    between atoms: _190  and  _192
REMARK   73  A    between atoms: _192  and  _193
REMARK   74  A    between atoms: _195  and  _197
REMARK   75  A    between atoms: _197  and  _198
REMARK   76  A    between atoms: _197  and  _200
REMARK   77  A    between atoms: _200  and  _201
REMARK   78  A    between atoms: _201  and  _202
REMARK   79  A    between atoms: _202  and  _203
REMARK   80  A    between atoms: _203  and  _204
REMARK   81  A    between atoms: _208  and  _210
REMARK   82  A    between atoms: _210  and  _211
REMARK   83  A    between atoms: _210  and  _213
REMARK   84  A    between atoms: _213  and  _214
REMARK   85  A    between atoms: _214  and  _215
REMARK   86  A    between atoms: _215  and  _216
REMARK   87  A    between atoms: _225  and  _227
REMARK   88  A    between atoms: _227  and  _228
REMARK   89  A    between atoms: _227  and  _230
REMARK   90  A    between atoms: _230  and  _231
REMARK   91  A    between atoms: _231  and  _232
REMARK   92  A    between atoms: _235  and  _237
REMARK   93  A    between atoms: _237  and  _238
REMARK   94  A    between atoms: _237  and  _240
REMARK   95  A    between atoms: _240  and  _241
REMARK   96  A    between atoms: _246  and  _248
REMARK   97  A    between atoms: _248  and  _249
REMARK   98  A    between atoms: _248  and  _251
REMARK   99  A    between atoms: _251  and  _252
REMARK  100  A    between atoms: _255  and  _257
REMARK  101  A    between atoms: _257  and  _258
REMARK  102  A    between atoms: _257  and  _260
REMARK  103  A    between atoms: _260  and  _261
REMARK  104  A    between atoms: _264  and  _266
REMARK  105  A    between atoms: _266  and  _267
REMARK  106  A    between atoms: _266  and  _269
REMARK  107  A    between atoms: _269  and  _270
REMARK  108  A    between atoms: _275  and  _277
REMARK  109  A    between atoms: _277  and  _278
REMARK  110  A    between atoms: _277  and  _280
REMARK  111  A    between atoms: _280  and  _281
REMARK  112  A    between atoms: _284  and  _286
REMARK  113  A    between atoms: _286  and  _287
REMARK  114  A    between atoms: _286  and  _289
REMARK  115  A    between atoms: _289  and  _290
REMARK  116  A    between atoms: _295  and  _297
REMARK  117  A    between atoms: _297  and  _298
REMARK  118  A    between atoms: _297  and  _300
REMARK  119  A    between atoms: _300  and  _301
REMARK  120  A    between atoms: _306  and  _308
REMARK  121  A    between atoms: _308  and  _309
REMARK  122  A    between atoms: _308  and  _311
REMARK  123  A    between atoms: _311  and  _312
REMARK  124  A    between atoms: _315  and  _317
REMARK  125  A    between atoms: _317  and  _318
REMARK  126  A    between atoms: _317  and  _320
REMARK  127  A    between atoms: _323  and  _325
REMARK  128  A    between atoms: _325  and  _326
REMARK  129  A    between atoms: _325  and  _328
REMARK  130  A    between atoms: _328  and  _329
REMARK  131  A    between atoms: _333  and  _334
REMARK  132  A    between atoms: _339  and  _341
REMARK  133  A    between atoms: _341  and  _342
REMARK  134  A    between atoms: _341  and  _344
REMARK  135  A    between atoms: _344  and  _345
REMARK  136  A    between atoms: _345  and  _346
REMARK  137  A    between atoms: _349  and  _351
REMARK  138  A    between atoms: _351  and  _352
REMARK  139  A    between atoms: _355  and  _357
REMARK  140  A    between atoms: _357  and  _358
REMARK  141  A    between atoms: _357  and  _360
REMARK  142  A    between atoms: _360  and  _361
REMARK  143  A    between atoms: _364  and  _366
REMARK  144  A    between atoms: _366  and  _367
REMARK  145  A    between atoms: _366  and  _369
REMARK  146  A    between atoms: _369  and  _370
REMARK  147  A    between atoms: _370  and  _371
REMARK  148  A    between atoms: _374  and  _376
REMARK  149  A    between atoms: _376  and  _377
REMARK  150  A    between atoms: _376  and  _379
REMARK  151  A    between atoms: _379  and  _380
REMARK  152  A    between atoms: _385  and  _387
REMARK  153  A    between atoms: _387  and  _388
REMARK  154  A    between atoms: _390  and  _392
REMARK  155  A    between atoms: _392  and  _393
REMARK  156  A    between atoms: _392  and  _395
REMARK  157  A    between atoms: _398  and  _400
REMARK  158  A    between atoms: _400  and  _401
REMARK  159  A    between atoms: _404  and  _406
REMARK  160  A    between atoms: _406  and  _407
REMARK  161  A    between atoms: _406  and  _409
REMARK  162  A    between atoms: _409  and  _410
REMARK  163  A    between atoms: _415  and  _417
REMARK  164  A    between atoms: _417  and  _418
REMARK  165  A    between atoms: _417  and  _420
REMARK  166  A    between atoms: _420  and  _421
REMARK  167  A    between atoms: _421  and  _422
REMARK  168  A    between atoms: _422  and  _423
REMARK  169  A    between atoms: _423  and  _424
REMARK  170  A    between atoms: _428  and  _430
REMARK  171  A    between atoms: _430  and  _431
REMARK  172  A    between atoms: _430  and  _433
REMARK  173  A    between atoms: _433  and  _434
REMARK  174  A    between atoms: _437  and  _439
REMARK  175  A    between atoms: _439  and  _440
REMARK  176  A    between atoms: _439  and  _442
REMARK  177  A    between atoms: _442  and  _443
REMARK  178  A    between atoms: _448  and  _450
REMARK  179  A    between atoms: _450  and  _451
REMARK  180  A    between atoms: _453  and  _455
REMARK  181  A    between atoms: _455  and  _456
REMARK  182  A    between atoms: _455  and  _458
REMARK  183  A    between atoms: _458  and  _459
REMARK  184  A    between atoms: _459  and  _460
REMARK  185  A    between atoms: _460  and  _461
REMARK  186  A    between atoms: _461  and  _462
REMARK  187  A    between atoms: _466  and  _468
REMARK  188  A    between atoms: _468  and  _469
REMARK  189  A    between atoms: _468  and  _471
REMARK  190  A    between atoms: _471  and  _472
REMARK  191  A    between atoms: _472  and  _473
REMARK  192  A    between atoms: _473  and  _474
REMARK  193  A    between atoms: _483  and  _485
REMARK  194  A    between atoms: _485  and  _486
REMARK  195  A    between atoms: _485  and  _488
REMARK  196  A    between atoms: _488  and  _489
REMARK  197  A    between atoms: _494  and  _496
REMARK  198  A    between atoms: _496  and  _497
REMARK  199  A    between atoms: _496  and  _499
REMARK  200  A    between atoms: _499  and  _500
REMARK  201  A    between atoms: _505  and  _506
REMARK  202  A    between atoms: _508  and  _510
REMARK  203  A    between atoms: _510  and  _511
REMARK  204  A    between atoms: _510  and  _513
REMARK  205  A    between atoms: _513  and  _514
REMARK  206  A    between atoms: _514  and  _515
REMARK  207  A    between atoms: _515  and  _516
REMARK  208  A    between atoms: _516  and  _517
REMARK  209  A    between atoms: _521  and  _523
REMARK  210  A    between atoms: _523  and  _524
REMARK  211  A    between atoms: _523  and  _526
REMARK  212  A    between atoms: _526  and  _527
REMARK  213  A    between atoms: _529  and  _531
REMARK  214  A    between atoms: _531  and  _532
REMARK  215  A    between atoms: _531  and  _534
REMARK  216  A    between atoms: _534  and  _535
REMARK  217  A    between atoms: _538  and  _540
REMARK  218  A    between atoms: _540  and  _541
REMARK  219  A    between atoms: _540  and  _543
REMARK  220  A    between atoms: _543  and  _544
REMARK  221  A    between atoms: _544  and  _545
REMARK  222  A    between atoms: _548  and  _550
REMARK  223  A    between atoms: _550  and  _551
REMARK  224  A    between atoms: _554  and  _556
REMARK  225  A    between atoms: _556  and  _557
REMARK  226  A    between atoms: _556  and  _559
REMARK  227  A    between atoms: _559  and  _560
REMARK  228  A    between atoms: _562  and  _564
REMARK  229  A    between atoms: _564  and  _565
REMARK  230  A    between atoms: _567  and  _569
REMARK  231  A    between atoms: _569  and  _570
REMARK  232  A    between atoms: _569  and  _572
REMARK  233  A    between atoms: _572  and  _573
REMARK  234  A    between atoms: _576  and  _578
REMARK  235  A    between atoms: _578  and  _579
REMARK  236  A    between atoms: _581  and  _583
REMARK  237  A    between atoms: _583  and  _584
REMARK  238  A    between atoms: _583  and  _586
REMARK  239  A    between atoms: _586  and  _587
REMARK  240  A    between atoms: _592  and  _594
REMARK  241  A    between atoms: _594  and  _595
REMARK  242  A    between atoms: _594  and  _597
REMARK  243  A    between atoms: _597  and  _598
REMARK  244  A    between atoms: _598  and  _599
REMARK  245  A    between atoms: _606  and  _607
REMARK  246  A    between atoms: _607  and  _623
REMARK  247  A    between atoms: _608  and  _610
REMARK  248  A    between atoms: _610  and  _611
REMARK  249  A    between atoms: _611  and  _612
REMARK  250  A    between atoms: _616  and  _618
REMARK  251  A    between atoms: _618  and  _619
REMARK  252  A    between atoms: _618  and  _626
REMARK  253  A    between atoms: _619  and  _620
REMARK  254  A    between atoms: _620  and  _621
REMARK  255  A    between atoms: _621  and  _622
REMARK  256  A    between atoms: _622  and  _623
REMARK  257  A    between atoms: _628  and  _630
REMARK  258  A    between atoms: _630  and  _631
REMARK  259  A    between atoms: _630  and  _633
REMARK  260  A    between atoms: _633  and  _634
REMARK  261  A    between atoms: _637  and  _639
REMARK  262  A    between atoms: _639  and  _640
REMARK  263  A    between atoms: _642  and  _644
REMARK  264  A    between atoms: _644  and  _645
REMARK  265  A    between atoms: _648  and  _650
REMARK  266  A    between atoms: _650  and  _651
REMARK  267  A    between atoms: _650  and  _653
REMARK  268  A    between atoms: _653  and  _654
REMARK  269  A    between atoms: _659  and  _660
REMARK                            x       y       z     vdW  Elec       q    Type
REMARK                         _______ _______ _______ _____ _____    ______ ____
ROOT
ATOM      1  C   GLY A   2      37.378  14.338  23.238  0.00  0.00    +0.243 C 
ATOM      2  O   GLY A   2      36.998  13.176  23.417  0.00  0.00    -0.273 OA
ATOM      3  N   VAL A   3      36.540  15.345  23.009  0.00  0.00    -0.297 N 
ATOM      4  H   VAL A   3      36.916  16.250  22.661  0.00  0.00    +0.150 HD
ENDROOT
BRANCH   1   5
ATOM      5  CA  GLY A   2      38.857  14.670  23.248  0.00  0.00    +0.176 C 
BRANCH   5   8
ATOM      6  C   ASN A   1      39.883  13.115  24.820  0.00  0.00    +0.239 C 
ATOM      7  O   ASN A   1      39.823  13.891  25.774  0.00  0.00    -0.274 OA
ATOM      8  N   GLY A   2      39.582  13.455  23.571  0.00  0.00    -0.296 N 
ATOM      9  H   GLY A   2      39.877  12.827  22.796  0.00  0.00    +0.150 HD
BRANCH   6  10
ATOM     10  CA  ASN A   1      40.355  11.681  25.003  0.00  0.00    +0.154 C 
BRANCH  10  11
ATOM     11  N   ASN A   1      41.374  11.506  26.035  0.00  0.00    -0.238 NA
ATOM     12  H   ASN A   1      41.220  11.900  26.985  0.00  0.00    +0.142 HD
ENDBRANCH  10  11
BRANCH  10  13
ATOM     13  CB  ASN A   1      39.155  10.732  25.219  0.00  0.00    +0.111 C 
BRANCH  13  14
ATOM     14  CG  ASN A   1      38.230  11.185  26.345  0.00  0.00    +0.221 C 
ATOM     15  OD1 ASN A   1      38.520  10.988  27.522  0.00  0.00    -0.275 OA
ATOM     16  ND2 ASN A   1      37.096  11.768  25.976  0.00  0.00    -0.329 N 
ATOM     17 HD21 ASN A   1      36.412  12.078  26.696  0.00  0.00    +0.145 HD
ATOM     18 HD22 ASN A   1      36.891  11.915  24.967  0.00  0.00    +0.145 HD
ENDBRANCH  13  14
ENDBRANCH  10  13
ENDBRANCH   6  10
ENDBRANCH   5   8
ENDBRANCH   1   5
BRANCH   3  19
ATOM     19  CA  VAL A   3      35.092  15.208  23.237  0.00  0.00    +0.149 C 
BRANCH  19  20
ATOM     20  C   VAL A   3      34.234  15.307  21.963  0.00  0.00    +0.241 C 
ATOM     21  O   VAL A   3      33.008  15.317  22.030  0.00  0.00    -0.273 OA
ATOM     22  N   ALA A   4      34.899  15.377  20.812  0.00  0.00    -0.298 N 
ATOM     23  H   ALA A   4      35.927  15.532  20.851  0.00  0.00    +0.150 HD
BRANCH  22  24
ATOM     24  CA  ALA A   4      34.274  15.249  19.494  0.00  0.00    +0.137 C 
ATOM     25  CB  ALA A   4      33.571  16.540  19.077  0.00  0.00    +0.030 C 
BRANCH  24  26
ATOM     26  C   ALA A   4      35.386  14.898  18.517  0.00  0.00    +0.227 C 
ATOM     27  O   ALA A   4      36.566  15.141  18.803  0.00  0.00    -0.286 OA
ENDBRANCH  24  26
ENDBRANCH  22  24
ENDBRANCH  19  20
BRANCH  19  28
ATOM     28  CB  VAL A   3      34.597  16.196  24.333  0.00  0.00    +0.027 C 
ATOM     29  CG2 VAL A   3      35.140  15.792  25.699  0.00  0.00    +0.002 C 
ATOM     30  CG1 VAL A   3      35.007  17.631  24.003  0.00  0.00    +0.002 C 
ENDBRANCH  19  28
ENDBRANCH   3  19
TORSDOF 11
REMARK  Name = ../refined-set-2016/2pyi/2pyi_pocket.pdb
REMARK  269 active torsions:
REMARK  status: ('A' for Active; 'I' for Inactive)
REMARK    1  A    between atoms: _1  and  _3
REMARK    2  A    between atoms: _3  and  _4
REMARK    3  A    between atoms: _3  and  _6
REMARK    4  A    between atoms: _6  and  _7
REMARK    5  A    between atoms: _12  and  _13
REMARK    6  A    between atoms: _15  and  _17
REMARK    7  A    between atoms: _17  and  _18
REMARK    8  A    between atoms: _17  and  _20
REMARK    9  A    between atoms: _20  and  _21
REMARK   10  A    between atoms: _21  and  _22
REMARK   11  A    between atoms: _25  and  _27
REMARK   12  A    between atoms: _27  and  _28
REMARK   13  A    between atoms: _27  and  _30
REMARK   14  A    between atoms: _30  and  _31
REMARK   15  A    between atoms: _36  and  _38
REMARK   16  A    between atoms: _38  and  _39
REMARK   17  A    between atoms: _41  and  _43
REMARK   18  A    between atoms: _43  and  _44
REMARK   19  A    between atoms: _46  and  _48
REMARK   20  A    between atoms: _48  and  _49
REMARK   21  A    between atoms: _48  and  _51
REMARK   22  A    between atoms: _51  and  _52
REMARK   23  A    between atoms: _55  and  _57
REMARK   24  A    between atoms: _57  and  _58
REMARK   25  A    between atoms: _60  and  _62
REMARK   26  A    between atoms: _62  and  _63
REMARK   27  A    between atoms: _62  and  _65
REMARK   28  A    between atoms: _65  and  _66
REMARK   29  A    between atoms: _66  and  _67
REMARK   30  A    between atoms: _67  and  _68
REMARK   31  A    between atoms: _77  and  _79
REMARK   32  A    between atoms: _79  and  _80
REMARK   33  A    between atoms: _79  and  _82
REMARK   34  A    between atoms: _82  and  _83
REMARK   35  A    between atoms: _86  and  _88
REMARK   36  A    between atoms: _88  and  _89
REMARK   37  A    between atoms: _92  and  _94
REMARK   38  A    between atoms: _94  and  _95
REMARK   39  A    between atoms: _94  and  _97
REMARK   40  A    between atoms: _97  and  _98
REMARK   41  A    between atoms: _104  and  _106
REMARK   42  A    between atoms: _106  and  _107
REMARK   43  A    between atoms: _106  and  _109
REMARK   44  A    between atoms: _109  and  _110
REMARK   45  A    between atoms: _115  and  _116
REMARK   46  A    between atoms: _119  and  _120
REMARK   47  A    between atoms: _125  and  _127
REMARK   48  A    between atoms: _127  and  _128
REMARK   49  A    between atoms: _127  and  _130
REMARK   50  A    between atoms: _130  and  _131
REMARK   51  A    between atoms: _136  and  _138
REMARK   52  A    between atoms: _138  and  _139
REMARK   53  A    between atoms: _138  and  _141
REMARK   54  A    between atoms: _141  and  _142
REMARK   55  A    between atoms: _145  and  _147
REMARK   56  A    between atoms: _147  and  _148
REMARK   57  A    between atoms: _147  and  _150
REMARK   58  A    between atoms: _150  and  _151
REMARK   59  A    between atoms: _156  and  _158
REMARK   60  A    between atoms: _158  and  _159
REMARK   61  A    between atoms: _158  and  _161
REMARK   62  A    between atoms: _161  and  _162
REMARK   63  A    between atoms: _168  and  _170
REMARK   64  A    between atoms: _170  and  _171
REMARK   65  A    between atoms: _170  and  _173
REMARK   66  A    between atoms: _173  and  _174
REMARK   67  A    between atoms: _180  and  _182
REMARK   68  A    between atoms: _182  and  _183
REMARK   69  A    between atoms: _182  and  _185
REMARK   70  A    between atoms: _185  and  _186
REMARK   71  A    between atoms: _186  and  _187
REMARK   72  A    between atoms: _190  and  _192
REMARK   73  A    between atoms: _192  and  _193
REMARK   74  A    between atoms: _195  and  _197
REMARK   75  A    between atoms: _197  and  _198
REMARK   76  A    between atoms: _197  and  _200
REMARK   77  A    between atoms: _200  and  _201
REMARK   78  A    between atoms: _201  and  _202
REMARK   79  A    between atoms: _202  and  _203
REMARK   80  A    between atoms: _203  and  _204
REMARK   81  A    between atoms: _208  and  _210
REMARK   82  A    between atoms: _210  and  _211
REMARK   83  A    between atoms: _210  and  _213
REMARK   84  A    between atoms: _213  and  _214
REMARK   85  A    between atoms: _214  and  _215
REMARK   86  A    between atoms: _215  and  _216
REMARK   87  A    between atoms: _225  and  _227
REMARK   88  A    between atoms: _227  and  _228
REMARK   89  A    between atoms: _227  and  _230
REMARK   90  A    between atoms: _230  and  _231
REMARK   91  A    between atoms: _231  and  _232
REMARK   92  A    between atoms: _235  and  _237
REMARK   93  A    between atoms: _237  and  _238
REMARK   94  A    between atoms: _237  and  _240
REMARK   95  A    between atoms: _240  and  _241
REMARK   96  A    between atoms: _246  and  _248
REMARK   97  A    between atoms: _248  and  _249
REMARK   98  A    between atoms: _248  and  _251
REMARK   99  A    between atoms: _251  and  _252
REMARK  100  A    between atoms: _255  and  _257
REMARK  101  A    between atoms: _257  and  _258
REMARK  102  A    between atoms: _257  and  _260
REMARK  103  A    between atoms: _260  and  _261
REMARK  104  A    between atoms: _264  and  _266
REMARK  105  A    between atoms: _266  and  _267
REMARK  106  A    between atoms: _266  and  _269
REMARK  107  A    between atoms: _269  and  _270
REMARK  108  A    between atoms: _275  and  _277
REMARK  109  A    between atoms: _277  and  _278
REMARK  110  A    between atoms: _277  and  _280
REMARK  111  A    between atoms: _280  and  _281
REMARK  112  A    between atoms: _284  and  _286
REMARK  113  A    between atoms: _286  and  _287
REMARK  114  A    between atoms: _286  and  _289
REMARK  115  A    between atoms: _289  and  _290
REMARK  116  A    between atoms: _295  and  _297
REMARK  117  A    between atoms: _297  and  _298
REMARK  118  A    between atoms: _297  and  _300
REMARK  119  A    between atoms: _300  and  _301
REMARK  120  A    between atoms: _306  and  _308
REMARK  121  A    between atoms: _308  and  _309
REMARK  122  A    between atoms: _308  and  _311
REMARK  123  A    between atoms: _311  and  _312
REMARK  124  A    between atoms: _315  and  _317
REMARK  125  A    between atoms: _317  and  _318
REMARK  126  A    between atoms: _317  and  _320
REMARK  127  A    between atoms: _323  and  _325
REMARK  128  A    between atoms: _325  and  _326
REMARK  129  A    between atoms: _325  and  _328
REMARK  130  A    between atoms: _328  and  _329
REMARK  131  A    between atoms: _333  and  _334
REMARK  132  A    between atoms: _339  and  _341
REMARK  133  A    between atoms: _341  and  _342
REMARK  134  A    between atoms: _341  and  _344
REMARK  135  A    between atoms: _344  and  _345
REMARK  136  A    between atoms: _345  and  _346
REMARK  137  A    between atoms: _349  and  _351
REMARK  138  A    between atoms: _351  and  _352
REMARK  139  A    between atoms: _355  and  _357
REMARK  140  A    between atoms: _357  and  _358
REMARK  141  A    between atoms: _357  and  _360
REMARK  142  A    between atoms: _360  and  _361
REMARK  143  A    between atoms: _364  and  _366
REMARK  144  A    between atoms: _366  and  _367
REMARK  145  A    between atoms: _366  and  _369
REMARK  146  A    between atoms: _369  and  _370
REMARK  147  A    between atoms: _370  and  _371
REMARK  148  A    between atoms: _374  and  _376
REMARK  149  A    between atoms: _376  and  _377
REMARK  150  A    between atoms: _376  and  _379
REMARK  151  A    between atoms: _379  and  _380
REMARK  152  A    between atoms: _385  and  _387
REMARK  153  A    between atoms: _387  and  _388
REMARK  154  A    between atoms: _390  and  _392
REMARK  155  A    between atoms: _392  and  _393
REMARK  156  A    between atoms: _392  and  _395
REMARK  157  A    between atoms: _398  and  _400
REMARK  158  A    between atoms: _400  and  _401
REMARK  159  A    between atoms: _404  and  _406
REMARK  160  A    between atoms: _406  and  _407
REMARK  161  A    between atoms: _406  and  _409
REMARK  162  A    between atoms: _409  and  _410
REMARK  163  A    between atoms: _415  and  _417
REMARK  164  A    between atoms: _417  and  _418
REMARK  165  A    between atoms: _417  and  _420
REMARK  166  A    between atoms: _420  and  _421
REMARK  167  A    between atoms: _421  and  _422
REMARK  168  A    between atoms: _422  and  _423
REMARK  169  A    between atoms: _423  and  _424
REMARK  170  A    between atoms: _428  and  _430
REMARK  171  A    between atoms: _430  and  _431
REMARK  172  A    between atoms: _430  and  _433
REMARK  173  A    between atoms: _433  and  _434
REMARK  174  A    between atoms: _437  and  _439
REMARK  175  A    between atoms: _439  and  _440
REMARK  176  A    between atoms: _439  and  _442
REMARK  177  A    between atoms: _442  and  _443
REMARK  178  A    between atoms: _448  and  _450
REMARK  179  A    between atoms: _450  and  _451
REMARK  180  A    between atoms: _453  and  _455
REMARK  181  A    between atoms: _455  and  _456
REMARK  182  A    between atoms: _455  and  _458
REMARK  183  A    between atoms: _458  and  _459
REMARK  184  A    between atoms: _459  and  _460
REMARK  185  A    between atoms: _460  and  _461
REMARK  186  A    between atoms: _461  and  _462
REMARK  187  A    between atoms: _466  and  _468
REMARK  188  A    between atoms: _468  and  _469
REMARK  189  A    between atoms: _468  and  _471
REMARK  190  A    between atoms: _471  and  _472
REMARK  191  A    between atoms: _472  and  _473
REMARK  192  A    between atoms: _473  and  _474
REMARK  193  A    between atoms: _483  and  _485
REMARK  194  A    between atoms: _485  and  _486
REMARK  195  A    between atoms: _485  and  _488
REMARK  196  A    between atoms: _488  and  _489
REMARK  197  A    between atoms: _494  and  _496
REMARK  198  A    between atoms: _496  and  _497
REMARK  199  A    between atoms: _496  and  _499
REMARK  200  A    between atoms: _499  and  _500
REMARK  201  A    between atoms: _505  and  _506
REMARK  202  A    between atoms: _508  and  _510
REMARK  203  A    between atoms: _510  and  _511
REMARK  204  A    between atoms: _510  and  _513
REMARK  205  A    between atoms: _513  and  _514
REMARK  206  A    between atoms: _514  and  _515
REMARK  207  A    between atoms: _515  and  _516
REMARK  208  A    between atoms: _516  and  _517
REMARK  209  A    between atoms: _521  and  _523
REMARK  210  A    between atoms: _523  and  _524
REMARK  211  A    between atoms: _523  and  _526
REMARK  212  A    between atoms: _526  and  _527
REMARK  213  A    between atoms: _529  and  _531
REMARK  214  A    between atoms: _531  and  _532
REMARK  215  A    between atoms: _531  and  _534
REMARK  216  A    between atoms: _534  and  _535
REMARK  217  A    between atoms: _538  and  _540
REMARK  218  A    between atoms: _540  and  _541
REMARK  219  A    between atoms: _540  and  _543
REMARK  220  A    between atoms: _543  and  _544
REMARK  221  A    between atoms: _544  and  _545
REMARK  222  A    between atoms: _548  and  _550
REMARK  223  A    between atoms: _550  and  _551
REMARK  224  A    between atoms: _554  and  _556
REMARK  225  A    between atoms: _556  and  _557
REMARK  226  A    between atoms: _556  and  _559
REMARK  227  A    between atoms: _559  and  _560
REMARK  228  A    between atoms: _562  and  _564
REMARK  229  A    between atoms: _564  and  _565
REMARK  230  A    between atoms: _567  and  _569
REMARK  231  A    between atoms: _569  and  _570
REMARK  232  A    between atoms: _569  and  _572
REMARK  233  A    between atoms: _572  and  _573
REMARK  234  A    between atoms: _576  and  _578
REMARK  235  A    between atoms: _578  and  _579
REMARK  236  A    between atoms: _581  and  _583
REMARK  237  A    between atoms: _583  and  _584
REMARK  238  A    between atoms: _583  and  _586
REMARK  239  A    between atoms: _586  and  _587
REMARK  240  A    between atoms: _592  and  _594
REMARK  241  A    between atoms: _594  and  _595
REMARK  242  A    between atoms: _594  and  _597
REMARK  243  A    between atoms: _597  and  _598
REMARK  244  A    between atoms: _598  and  _599
REMARK  245  A    between atoms: _606  and  _607
REMARK  246  A    between atoms: _607  and  _623
REMARK  247  A    between atoms: _608  and  _610
REMARK  248  A    between atoms: _610  and  _611
REMARK  249  A    between atoms: _611  and  _612
REMARK  250  A    between atoms: _616  and  _618
REMARK  251  A    between atoms: _618  and  _619
REMARK  252  A    between atoms: _618  and  _626
REMARK  253  A    between atoms: _619  and  _620
REMARK  254  A    between atoms: _620  and  _621
REMARK  255  A    between atoms: _621  and  _622
REMARK  256  A    between atoms: _622  and  _623
REMARK  257  A    between atoms: _628  and  _630
REMARK  258  A    between atoms: _630  and  _631
REMARK  259  A    between atoms: _630  and  _633
REMARK  260  A    between atoms: _633  and  _634
REMARK  261  A    between atoms: _637  and  _639
REMARK  262  A    between atoms: _639  and  _640
REMARK  263  A    between atoms: _642  and  _644
REMARK  264  A    between atoms: _644  and  _645
REMARK  265  A    between atoms: _648  and  _650
REMARK  266  A    between atoms: _650  and  _651
REMARK  267  A    between atoms: _650  and  _653
REMARK  268  A    between atoms: _653  and  _654
REMARK  269  A    between atoms: _659  and  _660
REMARK                            x       y       z     vdW  Elec       q    Type
REMARK                         _______ _______ _______ _____ _____    ______ ____
ROOT
ATOM      1  CB  HIS A   1      37.669  18.275  19.850  0.00  0.00    +0.072 C 
ENDROOT
BRANCH   1   2
ATOM      2  CG  HIS A   1      38.364  18.489  21.160  0.00  0.00    +0.082 A 
ATOM      3  CD2 HIS A   1      38.268  17.824  22.335  0.00  0.00    +0.115 A 
ATOM      4  NE2 HIS A   1      39.117  18.439  23.222  0.00  0.00    -0.221 NA
ATOM      5  CE1 HIS A   1      39.703  19.458  22.617  0.00  0.00    +0.199 A 
ATOM      6  ND1 HIS A   1      39.264  19.511  21.372  0.00  0.00    -0.227 NA
ENDBRANCH   1   2
BRANCH   1   7
ATOM      7  CA  HIS A   1      38.614  18.032  18.665  0.00  0.00    +0.139 C 
BRANCH   7   8
ATOM      8  N   HIS A   1      37.844  17.609  17.495  0.00  0.00    -0.239 NA
ATOM      9  H   HIS A   1      36.852  17.328  17.634  0.00  0.00    +0.142 HD
ENDBRANCH   7   8
BRANCH   7  10
ATOM     10  C   HIS A   1      39.703  17.024  19.024  0.00  0.00    +0.224 C 
ATOM     11  O   HIS A   1      40.859  17.399  19.216  0.00  0.00    -0.287 OA
ENDBRANCH   7  10
ENDBRANCH   1   7
TORSDOF 4
REMARK  Name = ../refined-set-2016/2pyi/2pyi_pocket.pdb
REMARK  269 active torsions:
REMARK  status: ('A' for Active; 'I' for Inactive)
REMARK    1  A    between atoms: _1  and  _3
REMARK    2  A    between atoms: _3  and  _4
REMARK    3  A    between atoms: _3  and  _6
REMARK    4  A    between atoms: _6  and  _7
REMARK    5  A    between atoms: _12  and  _13
REMARK    6  A    between atoms: _15  and  _17
REMARK    7  A    between atoms: _17  and  _18
REMARK    8  A    between atoms: _17  and  _20
REMARK    9  A    between atoms: _20  and  _21
REMARK   10  A    between atoms: _21  and  _22
REMARK   11  A    between atoms: _25  and  _27
REMARK   12  A    between atoms: _27  and  _28
REMARK   13  A    between atoms: _27  and  _30
REMARK   14  A    between atoms: _30  and  _31
REMARK   15  A    between atoms: _36  and  _38
REMARK   16  A    between atoms: _38  and  _39
REMARK   17  A    between atoms: _41  and  _43
REMARK   18  A    between atoms: _43  and  _44
REMARK   19  A    between atoms: _46  and  _48
REMARK   20  A    between atoms: _48  and  _49
REMARK   21  A    between atoms: _48  and  _51
REMARK   22  A    between atoms: _51  and  _52
REMARK   23  A    between atoms: _55  and  _57
REMARK   24  A    between atoms: _57  and  _58
REMARK   25  A    between atoms: _60  and  _62
REMARK   26  A    between atoms: _62  and  _63
REMARK   27  A    between atoms: _62  and  _65
REMARK   28  A    between atoms: _65  and  _66
REMARK   29  A    between atoms: _66  and  _67
REMARK   30  A    between atoms: _67  and  _68
REMARK   31  A    between atoms: _77  and  _79
REMARK   32  A    between atoms: _79  and  _80
REMARK   33  A    between atoms: _79  and  _82
REMARK   34  A    between atoms: _82  and  _83
REMARK   35  A    between atoms: _86  and  _88
REMARK   36  A    between atoms: _88  and  _89
REMARK   37  A    between atoms: _92  and  _94
REMARK   38  A    between atoms: _94  and  _95
REMARK   39  A    between atoms: _94  and  _97
REMARK   40  A    between atoms: _97  and  _98
REMARK   41  A    between atoms: _104  and  _106
REMARK   42  A    between atoms: _106  and  _107
REMARK   43  A    between atoms: _106  and  _109
REMARK   44  A    between atoms: _109  and  _110
REMARK   45  A    between atoms: _115  and  _116
REMARK   46  A    between atoms: _119  and  _120
REMARK   47  A    between atoms: _125  and  _127
REMARK   48  A    between atoms: _127  and  _128
REMARK   49  A    between atoms: _127  and  _130
REMARK   50  A    between atoms: _130  and  _131
REMARK   51  A    between atoms: _136  and  _138
REMARK   52  A    between atoms: _138  and  _139
REMARK   53  A    between atoms: _138  and  _141
REMARK   54  A    between atoms: _141  and  _142
REMARK   55  A    between atoms: _145  and  _147
REMARK   56  A    between atoms: _147  and  _148
REMARK   57  A    between atoms: _147  and  _150
REMARK   58  A    between atoms: _150  and  _151
REMARK   59  A    between atoms: _156  and  _158
REMARK   60  A    between atoms: _158  and  _159
REMARK   61  A    between atoms: _158  and  _161
REMARK   62  A    between atoms: _161  and  _162
REMARK   63  A    between atoms: _168  and  _170
REMARK   64  A    between atoms: _170  and  _171
REMARK   65  A    between atoms: _170  and  _173
REMARK   66  A    between atoms: _173  and  _174
REMARK   67  A    between atoms: _180  and  _182
REMARK   68  A    between atoms: _182  and  _183
REMARK   69  A    between atoms: _182  and  _185
REMARK   70  A    between atoms: _185  and  _186
REMARK   71  A    between atoms: _186  and  _187
REMARK   72  A    between atoms: _190  and  _192
REMARK   73  A    between atoms: _192  and  _193
REMARK   74  A    between atoms: _195  and  _197
REMARK   75  A    between atoms: _197  and  _198
REMARK   76  A    between atoms: _197  and  _200
REMARK   77  A    between atoms: _200  and  _201
REMARK   78  A    between atoms: _201  and  _202
REMARK   79  A    between atoms: _202  and  _203
REMARK   80  A    between atoms: _203  and  _204
REMARK   81  A    between atoms: _208  and  _210
REMARK   82  A    between atoms: _210  and  _211
REMARK   83  A    between atoms: _210  and  _213
REMARK   84  A    between atoms: _213  and  _214
REMARK   85  A    between atoms: _214  and  _215
REMARK   86  A    between atoms: _215  and  _216
REMARK   87  A    between atoms: _225  and  _227
REMARK   88  A    between atoms: _227  and  _228
REMARK   89  A    between atoms: _227  and  _230
REMARK   90  A    between atoms: _230  and  _231
REMARK   91  A    between atoms: _231  and  _232
REMARK   92  A    between atoms: _235  and  _237
REMARK   93  A    between atoms: _237  and  _238
REMARK   94  A    between atoms: _237  and  _240
REMARK   95  A    between atoms: _240  and  _241
REMARK   96  A    between atoms: _246  and  _248
REMARK   97  A    between atoms: _248  and  _249
REMARK   98  A    between atoms: _248  and  _251
REMARK   99  A    between atoms: _251  and  _252
REMARK  100  A    between atoms: _255  and  _257
REMARK  101  A    between atoms: _257  and  _258
REMARK  102  A    between atoms: _257  and  _260
REMARK  103  A    between atoms: _260  and  _261
REMARK  104  A    between atoms: _264  and  _266
REMARK  105  A    between atoms: _266  and  _267
REMARK  106  A    between atoms: _266  and  _269
REMARK  107  A    between atoms: _269  and  _270
REMARK  108  A    between atoms: _275  and  _277
REMARK  109  A    between atoms: _277  and  _278
REMARK  110  A    between atoms: _277  and  _280
REMARK  111  A    between atoms: _280  and  _281
REMARK  112  A    between atoms: _284  and  _286
REMARK  113  A    between atoms: _286  and  _287
REMARK  114  A    between atoms: _286  and  _289
REMARK  115  A    between atoms: _289  and  _290
REMARK  116  A    between atoms: _295  and  _297
REMARK  117  A    between atoms: _297  and  _298
REMARK  118  A    between atoms: _297  and  _300
REMARK  119  A    between atoms: _300  and  _301
REMARK  120  A    between atoms: _306  and  _308
REMARK  121  A    between atoms: _308  and  _309
REMARK  122  A    between atoms: _308  and  _311
REMARK  123  A    between atoms: _311  and  _312
REMARK  124  A    between atoms: _315  and  _317
REMARK  125  A    between atoms: _317  and  _318
REMARK  126  A    between atoms: _317  and  _320
REMARK  127  A    between atoms: _323  and  _325
REMARK  128  A    between atoms: _325  and  _326
REMARK  129  A    between atoms: _325  and  _328
REMARK  130  A    between atoms: _328  and  _329
REMARK  131  A    between atoms: _333  and  _334
REMARK  132  A    between atoms: _339  and  _341
REMARK  133  A    between atoms: _341  and  _342
REMARK  134  A    between atoms: _341  and  _344
REMARK  135  A    between atoms: _344  and  _345
REMARK  136  A    between atoms: _345  and  _346
REMARK  137  A    between atoms: _349  and  _351
REMARK  138  A    between atoms: _351  and  _352
REMARK  139  A    between atoms: _355  and  _357
REMARK  140  A    between atoms: _357  and  _358
REMARK  141  A    between atoms: _357  and  _360
REMARK  142  A    between atoms: _360  and  _361
REMARK  143  A    between atoms: _364  and  _366
REMARK  144  A    between atoms: _366  and  _367
REMARK  145  A    between atoms: _366  and  _369
REMARK  146  A    between atoms: _369  and  _370
REMARK  147  A    between atoms: _370  and  _371
REMARK  148  A    between atoms: _374  and  _376
REMARK  149  A    between atoms: _376  and  _377
REMARK  150  A    between atoms: _376  and  _379
REMARK  151  A    between atoms: _379  and  _380
REMARK  152  A    between atoms: _385  and  _387
REMARK  153  A    between atoms: _387  and  _388
REMARK  154  A    between atoms: _390  and  _392
REMARK  155  A    between atoms: _392  and  _393
REMARK  156  A    between atoms: _392  and  _395
REMARK  157  A    between atoms: _398  and  _400
REMARK  158  A    between atoms: _400  and  _401
REMARK  159  A    between atoms: _404  and  _406
REMARK  160  A    between atoms: _406  and  _407
REMARK  161  A    between atoms: _406  and  _409
REMARK  162  A    between atoms: _409  and  _410
REMARK  163  A    between atoms: _415  and  _417
REMARK  164  A    between atoms: _417  and  _418
REMARK  165  A    between atoms: _417  and  _420
REMARK  166  A    between atoms: _420  and  _421
REMARK  167  A    between atoms: _421  and  _422
REMARK  168  A    between atoms: _422  and  _423
REMARK  169  A    between atoms: _423  and  _424
REMARK  170  A    between atoms: _428  and  _430
REMARK  171  A    between atoms: _430  and  _431
REMARK  172  A    between atoms: _430  and  _433
REMARK  173  A    between atoms: _433  and  _434
REMARK  174  A    between atoms: _437  and  _439
REMARK  175  A    between atoms: _439  and  _440
REMARK  176  A    between atoms: _439  and  _442
REMARK  177  A    between atoms: _442  and  _443
REMARK  178  A    between atoms: _448  and  _450
REMARK  179  A    between atoms: _450  and  _451
REMARK  180  A    between atoms: _453  and  _455
REMARK  181  A    between atoms: _455  and  _456
REMARK  182  A    between atoms: _455  and  _458
REMARK  183  A    between atoms: _458  and  _459
REMARK  184  A    between atoms: _459  and  _460
REMARK  185  A    between atoms: _460  and  _461
REMARK  186  A    between atoms: _461  and  _462
REMARK  187  A    between atoms: _466  and  _468
REMARK  188  A    between atoms: _468  and  _469
REMARK  189  A    between atoms: _468  and  _471
REMARK  190  A    between atoms: _471  and  _472
REMARK  191  A    between atoms: _472  and  _473
REMARK  192  A    between atoms: _473  and  _474
REMARK  193  A    between atoms: _483  and  _485
REMARK  194  A    between atoms: _485  and  _486
REMARK  195  A    between atoms: _485  and  _488
REMARK  196  A    between atoms: _488  and  _489
REMARK  197  A    between atoms: _494  and  _496
REMARK  198  A    between atoms: _496  and  _497
REMARK  199  A    between atoms: _496  and  _499
REMARK  200  A    between atoms: _499  and  _500
REMARK  201  A    between atoms: _505  and  _506
REMARK  202  A    between atoms: _508  and  _510
REMARK  203  A    between atoms: _510  and  _511
REMARK  204  A    between atoms: _510  and  _513
REMARK  205  A    between atoms: _513  and  _514
REMARK  206  A    between atoms: _514  and  _515
REMARK  207  A    between atoms: _515  and  _516
REMARK  208  A    between atoms: _516  and  _517
REMARK  209  A    between atoms: _521  and  _523
REMARK  210  A    between atoms: _523  and  _524
REMARK  211  A    between atoms: _523  and  _526
REMARK  212  A    between atoms: _526  and  _527
REMARK  213  A    between atoms: _529  and  _531
REMARK  214  A    between atoms: _531  and  _532
REMARK  215  A    between atoms: _531  and  _534
REMARK  216  A    between atoms: _534  and  _535
REMARK  217  A    between atoms: _538  and  _540
REMARK  218  A    between atoms: _540  and  _541
REMARK  219  A    between atoms: _540  and  _543
REMARK  220  A    between atoms: _543  and  _544
REMARK  221  A    between atoms: _544  and  _545
REMARK  222  A    between atoms: _548  and  _550
REMARK  223  A    between atoms: _550  and  _551
REMARK  224  A    between atoms: _554  and  _556
REMARK  225  A    between atoms: _556  and  _557
REMARK  226  A    between atoms: _556  and  _559
REMARK  227  A    between atoms: _559  and  _560
REMARK  228  A    between atoms: _562  and  _564
REMARK  229  A    between atoms: _564  and  _565
REMARK  230  A    between atoms: _567  and  _569
REMARK  231  A    between atoms: _569  and  _570
REMARK  232  A    between atoms: _569  and  _572
REMARK  233  A    between atoms: _572  and  _573
REMARK  234  A    between atoms: _576  and  _578
REMARK  235  A    between atoms: _578  and  _579
REMARK  236  A    between atoms: _581  and  _583
REMARK  237  A    between atoms: _583  and  _584
REMARK  238  A    between atoms: _583  and  _586
REMARK  239  A    between atoms: _586  and  _587
REMARK  240  A    between atoms: _592  and  _594
REMARK  241  A    between atoms: _594  and  _595
REMARK  242  A    between atoms: _594  and  _597
REMARK  243  A    between atoms: _597  and  _598
REMARK  244  A    between atoms: _598  and  _599
REMARK  245  A    between atoms: _606  and  _607
REMARK  246  A    between atoms: _607  and  _623
REMARK  247  A    between atoms: _608  and  _610
REMARK  248  A    between atoms: _610  and  _611
REMARK  249  A    between atoms: _611  and  _612
REMARK  250  A    between atoms: _616  and  _618
REMARK  251  A    between atoms: _618  and  _619
REMARK  252  A    between atoms: _618  and  _626
REMARK  253  A    between atoms: _619  and  _620
REMARK  254  A    between atoms: _620  and  _621
REMARK  255  A    between atoms: _621  and  _622
REMARK  256  A    between atoms: _622  and  _623
REMARK  257  A    between atoms: _628  and  _630
REMARK  258  A    between atoms: _630  and  _631
REMARK  259  A    between atoms: _630  and  _633
REMARK  260  A    between atoms: _633  and  _634
REMARK  261  A    between atoms: _637  and  _639
REMARK  262  A    between atoms: _639  and  _640
REMARK  263  A    between atoms: _642  and  _644
REMARK  264  A    between atoms: _644  and  _645
REMARK  265  A    between atoms: _648  and  _650
REMARK  266  A    between atoms: _650  and  _651
REMARK  267  A    between atoms: _650  and  _653
REMARK  268  A    between atoms: _653  and  _654
REMARK  269  A    between atoms: _659  and  _660
REMARK                            x       y       z     vdW  Elec       q    Type
REMARK                         _______ _______ _______ _____ _____    ______ ____
ROOT
ATOM      1  CA  THR A   2      32.191  12.210  21.132  0.00  0.00    +0.176 C 
ENDROOT
BRANCH   1   4
ATOM      2  C   LYS A   1      33.780  11.174  22.651  0.00  0.00    +0.238 C 
ATOM      3  O   LYS A   1      33.638  12.069  23.484  0.00  0.00    -0.274 OA
ATOM      4  N   THR A   2      33.123  11.143  21.494  0.00  0.00    -0.295 N 
ATOM      5  H   THR A   2      33.274  10.350  20.839  0.00  0.00    +0.150 HD
BRANCH   2   6
ATOM      6  CA  LYS A   1      34.754  10.040  22.899  0.00  0.00    +0.145 C 
BRANCH   6   7
ATOM      7  N   LYS A   1      36.048  10.423  22.349  0.00  0.00    -0.238 NA
ATOM      8  H   LYS A   1      36.397  11.390  22.504  0.00  0.00    +0.142 HD
ENDBRANCH   6   7
BRANCH   6   9
ATOM      9  CB  LYS A   1      34.846   9.728  24.395  0.00  0.00    +0.026 C 
BRANCH   9  10
ATOM     10  CG  LYS A   1      35.720   8.534  24.750  0.00  0.00    -0.000 C 
BRANCH  10  11
ATOM     11  CD  LYS A   1      35.089   7.220  24.319  0.00  0.00    -0.024 C 
BRANCH  11  12
ATOM     12  CE  LYS A   1      36.099   6.077  24.404  0.00  0.00    -0.086 C 
BRANCH  12  13
ATOM     13  NZ  LYS A   1      37.012   6.064  23.220  0.00  0.00    +0.380 N 
ATOM     14  HZ1 LYS A   1      37.684   5.276  23.311  0.00  0.00    -0.089 HD
ATOM     15  HZ2 LYS A   1      37.534   6.963  23.176  0.00  0.00    -0.089 HD
ATOM     16  HZ3 LYS A   1      36.451   5.945  22.352  0.00  0.00    -0.089 HD
ENDBRANCH  12  13
ENDBRANCH  11  12
ENDBRANCH  10  11
ENDBRANCH   9  10
ENDBRANCH   6   9
ENDBRANCH   2   6
ENDBRANCH   1   4
BRANCH   1  17
ATOM     17  C   THR A   2      31.134  12.329  22.221  0.00  0.00    +0.243 C 
ATOM     18  O   THR A   2      30.593  11.317  22.687  0.00  0.00    -0.273 OA
ATOM     19  N   ASN A   3      30.871  13.566  22.636  0.00  0.00    -0.297 N 
ATOM     20  H   ASN A   3      31.363  14.362  22.182  0.00  0.00    +0.150 HD
BRANCH  19  21
ATOM     21  CA  ASN A   3      29.917  13.847  23.706  0.00  0.00    +0.158 C 
BRANCH  21  22
ATOM     22  C   ASN A   3      28.502  13.387  23.375  0.00  0.00    +0.241 C 
ATOM     23  N   GLY A   4      27.675  13.350  24.407  0.00  0.00    -0.296 N 
ATOM     24  H   GLY A   4      28.038  13.594  25.350  0.00  0.00    +0.150 HD
ATOM     25  O   ASN A   3      28.170  13.080  22.225  0.00  0.00    -0.273 OA
BRANCH  23  26
ATOM     26  CA  GLY A   4      26.285  12.983  24.269  0.00  0.00    +0.163 C 
BRANCH  26  27
ATOM     27  C   GLY A   4      25.478  13.643  25.364  0.00  0.00    +0.229 C 
ATOM     28  O   GLY A   4      26.034  14.281  26.266  0.00  0.00    -0.286 OA
ENDBRANCH  26  27
ENDBRANCH  23  26
ENDBRANCH  21  22
BRANCH  21  29
ATOM     29  CB  ASN A   3      29.897  15.342  24.043  0.00  0.00    +0.114 C 
BRANCH  29  30
ATOM     30  CG  ASN A   3      31.045  15.772  24.953  0.00  0.00    +0.222 C 
ATOM     31  ND2 ASN A   3      31.728  14.819  25.563  0.00  0.00    -0.329 N 
ATOM     32 HD21 ASN A   3      32.509  15.067  26.203  0.00  0.00    +0.145 HD
ATOM     33 HD22 ASN A   3      31.485  13.821  25.403  0.00  0.00    +0.145 HD
ATOM     34  OD1 ASN A   3      31.293  16.966  25.109  0.00  0.00    -0.275 OA
ENDBRANCH  29  30
ENDBRANCH  21  29
ENDBRANCH  19  21
ENDBRANCH   1  17
BRANCH   1  35
ATOM     35  CB  THR A   2      31.554  11.978  19.742  0.00  0.00    +0.137 C 
ATOM     36  CG2 THR A   2      30.530  13.060  19.416  0.00  0.00    +0.034 C 
BRANCH  35  37
ATOM     37  OG1 THR A   2      32.583  12.006  18.746  0.00  0.00    -0.382 OA
ATOM     38  HG1 THR A   2      32.181  11.858  17.854  0.00  0.00    +0.210 HD
ENDBRANCH  35  37
ENDBRANCH   1  35
TORSDOF 17
REMARK  Name = ../refined-set-2016/2pyi/2pyi_pocket.pdb
REMARK  269 active torsions:
REMARK  status: ('A' for Active; 'I' for Inactive)
REMARK    1  A    between atoms: _1  and  _3
REMARK    2  A    between atoms: _3  and  _4
REMARK    3  A    between atoms: _3  and  _6
REMARK    4  A    between atoms: _6  and  _7
REMARK    5  A    between atoms: _12  and  _13
REMARK    6  A    between atoms: _15  and  _17
REMARK    7  A    between atoms: _17  and  _18
REMARK    8  A    between atoms: _17  and  _20
REMARK    9  A    between atoms: _20  and  _21
REMARK   10  A    between atoms: _21  and  _22
REMARK   11  A    between atoms: _25  and  _27
REMARK   12  A    between atoms: _27  and  _28
REMARK   13  A    between atoms: _27  and  _30
REMARK   14  A    between atoms: _30  and  _31
REMARK   15  A    between atoms: _36  and  _38
REMARK   16  A    between atoms: _38  and  _39
REMARK   17  A    between atoms: _41  and  _43
REMARK   18  A    between atoms: _43  and  _44
REMARK   19  A    between atoms: _46  and  _48
REMARK   20  A    between atoms: _48  and  _49
REMARK   21  A    between atoms: _48  and  _51
REMARK   22  A    between atoms: _51  and  _52
REMARK   23  A    between atoms: _55  and  _57
REMARK   24  A    between atoms: _57  and  _58
REMARK   25  A    between atoms: _60  and  _62
REMARK   26  A    between atoms: _62  and  _63
REMARK   27  A    between atoms: _62  and  _65
REMARK   28  A    between atoms: _65  and  _66
REMARK   29  A    between atoms: _66  and  _67
REMARK   30  A    between atoms: _67  and  _68
REMARK   31  A    between atoms: _77  and  _79
REMARK   32  A    between atoms: _79  and  _80
REMARK   33  A    between atoms: _79  and  _82
REMARK   34  A    between atoms: _82  and  _83
REMARK   35  A    between atoms: _86  and  _88
REMARK   36  A    between atoms: _88  and  _89
REMARK   37  A    between atoms: _92  and  _94
REMARK   38  A    between atoms: _94  and  _95
REMARK   39  A    between atoms: _94  and  _97
REMARK   40  A    between atoms: _97  and  _98
REMARK   41  A    between atoms: _104  and  _106
REMARK   42  A    between atoms: _106  and  _107
REMARK   43  A    between atoms: _106  and  _109
REMARK   44  A    between atoms: _109  and  _110
REMARK   45  A    between atoms: _115  and  _116
REMARK   46  A    between atoms: _119  and  _120
REMARK   47  A    between atoms: _125  and  _127
REMARK   48  A    between atoms: _127  and  _128
REMARK   49  A    between atoms: _127  and  _130
REMARK   50  A    between atoms: _130  and  _131
REMARK   51  A    between atoms: _136  and  _138
REMARK   52  A    between atoms: _138  and  _139
REMARK   53  A    between atoms: _138  and  _141
REMARK   54  A    between atoms: _141  and  _142
REMARK   55  A    between atoms: _145  and  _147
REMARK   56  A    between atoms: _147  and  _148
REMARK   57  A    between atoms: _147  and  _150
REMARK   58  A    between atoms: _150  and  _151
REMARK   59  A    between atoms: _156  and  _158
REMARK   60  A    between atoms: _158  and  _159
REMARK   61  A    between atoms: _158  and  _161
REMARK   62  A    between atoms: _161  and  _162
REMARK   63  A    between atoms: _168  and  _170
REMARK   64  A    between atoms: _170  and  _171
REMARK   65  A    between atoms: _170  and  _173
REMARK   66  A    between atoms: _173  and  _174
REMARK   67  A    between atoms: _180  and  _182
REMARK   68  A    between atoms: _182  and  _183
REMARK   69  A    between atoms: _182  and  _185
REMARK   70  A    between atoms: _185  and  _186
REMARK   71  A    between atoms: _186  and  _187
REMARK   72  A    between atoms: _190  and  _192
REMARK   73  A    between atoms: _192  and  _193
REMARK   74  A    between atoms: _195  and  _197
REMARK   75  A    between atoms: _197  and  _198
REMARK   76  A    between atoms: _197  and  _200
REMARK   77  A    between atoms: _200  and  _201
REMARK   78  A    between atoms: _201  and  _202
REMARK   79  A    between atoms: _202  and  _203
REMARK   80  A    between atoms: _203  and  _204
REMARK   81  A    between atoms: _208  and  _210
REMARK   82  A    between atoms: _210  and  _211
REMARK   83  A    between atoms: _210  and  _213
REMARK   84  A    between atoms: _213  and  _214
REMARK   85  A    between atoms: _214  and  _215
REMARK   86  A    between atoms: _215  and  _216
REMARK   87  A    between atoms: _225  and  _227
REMARK   88  A    between atoms: _227  and  _228
REMARK   89  A    between atoms: _227  and  _230
REMARK   90  A    between atoms: _230  and  _231
REMARK   91  A    between atoms: _231  and  _232
REMARK   92  A    between atoms: _235  and  _237
REMARK   93  A    between atoms: _237  and  _238
REMARK   94  A    between atoms: _237  and  _240
REMARK   95  A    between atoms: _240  and  _241
REMARK   96  A    between atoms: _246  and  _248
REMARK   97  A    between atoms: _248  and  _249
REMARK   98  A    between atoms: _248  and  _251
REMARK   99  A    between atoms: _251  and  _252
REMARK  100  A    between atoms: _255  and  _257
REMARK  101  A    between atoms: _257  and  _258
REMARK  102  A    between atoms: _257  and  _260
REMARK  103  A    between atoms: _260  and  _261
REMARK  104  A    between atoms: _264  and  _266
REMARK  105  A    between atoms: _266  and  _267
REMARK  106  A    between atoms: _266  and  _269
REMARK  107  A    between atoms: _269  and  _270
REMARK  108  A    between atoms: _275  and  _277
REMARK  109  A    between atoms: _277  and  _278
REMARK  110  A    between atoms: _277  and  _280
REMARK  111  A    between atoms: _280  and  _281
REMARK  112  A    between atoms: _284  and  _286
REMARK  113  A    between atoms: _286  and  _287
REMARK  114  A    between atoms: _286  and  _289
REMARK  115  A    between atoms: _289  and  _290
REMARK  116  A    between atoms: _295  and  _297
REMARK  117  A    between atoms: _297  and  _298
REMARK  118  A    between atoms: _297  and  _300
REMARK  119  A    between atoms: _300  and  _301
REMARK  120  A    between atoms: _306  and  _308
REMARK  121  A    between atoms: _308  and  _309
REMARK  122  A    between atoms: _308  and  _311
REMARK  123  A    between atoms: _311  and  _312
REMARK  124  A    between atoms: _315  and  _317
REMARK  125  A    between atoms: _317  and  _318
REMARK  126  A    between atoms: _317  and  _320
REMARK  127  A    between atoms: _323  and  _325
REMARK  128  A    between atoms: _325  and  _326
REMARK  129  A    between atoms: _325  and  _328
REMARK  130  A    between atoms: _328  and  _329
REMARK  131  A    between atoms: _333  and  _334
REMARK  132  A    between atoms: _339  and  _341
REMARK  133  A    between atoms: _341  and  _342
REMARK  134  A    between atoms: _341  and  _344
REMARK  135  A    between atoms: _344  and  _345
REMARK  136  A    between atoms: _345  and  _346
REMARK  137  A    between atoms: _349  and  _351
REMARK  138  A    between atoms: _351  and  _352
REMARK  139  A    between atoms: _355  and  _357
REMARK  140  A    between atoms: _357  and  _358
REMARK  141  A    between atoms: _357  and  _360
REMARK  142  A    between atoms: _360  and  _361
REMARK  143  A    between atoms: _364  and  _366
REMARK  144  A    between atoms: _366  and  _367
REMARK  145  A    between atoms: _366  and  _369
REMARK  146  A    between atoms: _369  and  _370
REMARK  147  A    between atoms: _370  and  _371
REMARK  148  A    between atoms: _374  and  _376
REMARK  149  A    between atoms: _376  and  _377
REMARK  150  A    between atoms: _376  and  _379
REMARK  151  A    between atoms: _379  and  _380
REMARK  152  A    between atoms: _385  and  _387
REMARK  153  A    between atoms: _387  and  _388
REMARK  154  A    between atoms: _390  and  _392
REMARK  155  A    between atoms: _392  and  _393
REMARK  156  A    between atoms: _392  and  _395
REMARK  157  A    between atoms: _398  and  _400
REMARK  158  A    between atoms: _400  and  _401
REMARK  159  A    between atoms: _404  and  _406
REMARK  160  A    between atoms: _406  and  _407
REMARK  161  A    between atoms: _406  and  _409
REMARK  162  A    between atoms: _409  and  _410
REMARK  163  A    between atoms: _415  and  _417
REMARK  164  A    between atoms: _417  and  _418
REMARK  165  A    between atoms: _417  and  _420
REMARK  166  A    between atoms: _420  and  _421
REMARK  167  A    between atoms: _421  and  _422
REMARK  168  A    between atoms: _422  and  _423
REMARK  169  A    between atoms: _423  and  _424
REMARK  170  A    between atoms: _428  and  _430
REMARK  171  A    between atoms: _430  and  _431
REMARK  172  A    between atoms: _430  and  _433
REMARK  173  A    between atoms: _433  and  _434
REMARK  174  A    between atoms: _437  and  _439
REMARK  175  A    between atoms: _439  and  _440
REMARK  176  A    between atoms: _439  and  _442
REMARK  177  A    between atoms: _442  and  _443
REMARK  178  A    between atoms: _448  and  _450
REMARK  179  A    between atoms: _450  and  _451
REMARK  180  A    between atoms: _453  and  _455
REMARK  181  A    between atoms: _455  and  _456
REMARK  182  A    between atoms: _455  and  _458
REMARK  183  A    between atoms: _458  and  _459
REMARK  184  A    between atoms: _459  and  _460
REMARK  185  A    between atoms: _460  and  _461
REMARK  186  A    between atoms: _461  and  _462
REMARK  187  A    between atoms: _466  and  _468
REMARK  188  A    between atoms: _468  and  _469
REMARK  189  A    between atoms: _468  and  _471
REMARK  190  A    between atoms: _471  and  _472
REMARK  191  A    between atoms: _472  and  _473
REMARK  192  A    between atoms: _473  and  _474
REMARK  193  A    between atoms: _483  and  _485
REMARK  194  A    between atoms: _485  and  _486
REMARK  195  A    between atoms: _485  and  _488
REMARK  196  A    between atoms: _488  and  _489
REMARK  197  A    between atoms: _494  and  _496
REMARK  198  A    between atoms: _496  and  _497
REMARK  199  A    between atoms: _496  and  _499
REMARK  200  A    between atoms: _499  and  _500
REMARK  201  A    between atoms: _505  and  _506
REMARK  202  A    between atoms: _508  and  _510
REMARK  203  A    between atoms: _510  and  _511
REMARK  204  A    between atoms: _510  and  _513
REMARK  205  A    between atoms: _513  and  _514
REMARK  206  A    between atoms: _514  and  _515
REMARK  207  A    between atoms: _515  and  _516
REMARK  208  A    between atoms: _516  and  _517
REMARK  209  A    between atoms: _521  and  _523
REMARK  210  A    between atoms: _523  and  _524
REMARK  211  A    between atoms: _523  and  _526
REMARK  212  A    between atoms: _526  and  _527
REMARK  213  A    between atoms: _529  and  _531
REMARK  214  A    between atoms: _531  and  _532
REMARK  215  A    between atoms: _531  and  _534
REMARK  216  A    between atoms: _534  and  _535
REMARK  217  A    between atoms: _538  and  _540
REMARK  218  A    between atoms: _540  and  _541
REMARK  219  A    between atoms: _540  and  _543
REMARK  220  A    between atoms: _543  and  _544
REMARK  221  A    between atoms: _544  and  _545
REMARK  222  A    between atoms: _548  and  _550
REMARK  223  A    between atoms: _550  and  _551
REMARK  224  A    between atoms: _554  and  _556
REMARK  225  A    between atoms: _556  and  _557
REMARK  226  A    between atoms: _556  and  _559
REMARK  227  A    between atoms: _559  and  _560
REMARK  228  A    between atoms: _562  and  _564
REMARK  229  A    between atoms: _564  and  _565
REMARK  230  A    between atoms: _567  and  _569
REMARK  231  A    between atoms: _569  and  _570
REMARK  232  A    between atoms: _569  and  _572
REMARK  233  A    between atoms: _572  and  _573
REMARK  234  A    between atoms: _576  and  _578
REMARK  235  A    between atoms: _578  and  _579
REMARK  236  A    between atoms: _581  and  _583
REMARK  237  A    between atoms: _583  and  _584
REMARK  238  A    between atoms: _583  and  _586
REMARK  239  A    between atoms: _586  and  _587
REMARK  240  A    between atoms: _592  and  _594
REMARK  241  A    between atoms: _594  and  _595
REMARK  242  A    between atoms: _594  and  _597
REMARK  243  A    between atoms: _597  and  _598
REMARK  244  A    between atoms: _598  and  _599
REMARK  245  A    between atoms: _606  and  _607
REMARK  246  A    between atoms: _607  and  _623
REMARK  247  A    between atoms: _608  and  _610
REMARK  248  A    between atoms: _610  and  _611
REMARK  249  A    between atoms: _611  and  _612
REMARK  250  A    between atoms: _616  and  _618
REMARK  251  A    between atoms: _618  and  _619
REMARK  252  A    between atoms: _618  and  _626
REMARK  253  A    between atoms: _619  and  _620
REMARK  254  A    between atoms: _620  and  _621
REMARK  255  A    between atoms: _621  and  _622
REMARK  256  A    between atoms: _622  and  _623
REMARK  257  A    between atoms: _628  and  _630
REMARK  258  A    between atoms: _630  and  _631
REMARK  259  A    between atoms: _630  and  _633
REMARK  260  A    between atoms: _633  and  _634
REMARK  261  A    between atoms: _637  and  _639
REMARK  262  A    between atoms: _639  and  _640
REMARK  263  A    between atoms: _642  and  _644
REMARK  264  A    between atoms: _644  and  _645
REMARK  265  A    between atoms: _648  and  _650
REMARK  266  A    between atoms: _650  and  _651
REMARK  267  A    between atoms: _650  and  _653
REMARK  268  A    between atoms: _653  and  _654
REMARK  269  A    between atoms: _659  and  _660
REMARK                            x       y       z     vdW  Elec       q    Type
REMARK                         _______ _______ _______ _____ _____    ______ ____
ROOT
ATOM      1  C   LYS A   1      25.701  30.157  26.779  0.00  0.00    +0.238 C 
ATOM      2  N   ARG A   2      26.772  29.834  27.498  0.00  0.00    -0.298 N 
ATOM      3  H   ARG A   2      27.061  28.837  27.564  0.00  0.00    +0.150 HD
ATOM      4  O   LYS A   1      25.274  31.310  26.688  0.00  0.00    -0.274 OA
ENDROOT
BRANCH   1   5
ATOM      5  CA  LYS A   1      24.992  29.025  26.062  0.00  0.00    +0.145 C 
BRANCH   5   6
ATOM      6  N   LYS A   1      23.664  29.532  25.744  0.00  0.00    -0.238 NA
ATOM      7  H   LYS A   1      23.375  30.437  26.168  0.00  0.00    +0.142 HD
ENDBRANCH   5   6
BRANCH   5   8
ATOM      8  CB  LYS A   1      25.778  28.628  24.795  0.00  0.00    +0.026 C 
BRANCH   8   9
ATOM      9  CG  LYS A   1      25.846  29.717  23.720  0.00  0.00    -0.000 C 
BRANCH   9  10
ATOM     10  CD  LYS A   1      26.449  29.224  22.404  0.00  0.00    -0.024 C 
BRANCH  10  11
ATOM     11  CE  LYS A   1      25.522  28.267  21.652  0.00  0.00    -0.086 C 
BRANCH  11  12
ATOM     12  NZ  LYS A   1      26.071  26.879  21.614  0.00  0.00    +0.380 N 
ATOM     13  HZ1 LYS A   1      26.187  26.527  22.586  0.00  0.00    -0.089 HD
ATOM     14  HZ2 LYS A   1      26.994  26.885  21.134  0.00  0.00    -0.089 HD
ATOM     15  HZ3 LYS A   1      25.414  26.262  21.096  0.00  0.00    -0.089 HD
ENDBRANCH  11  12
ENDBRANCH  10  11
ENDBRANCH   9  10
ENDBRANCH   8   9
ENDBRANCH   5   8
ENDBRANCH   1   5
BRANCH   2  16
ATOM     16  CA  ARG A   2      27.551  30.854  28.198  0.00  0.00    +0.137 C 
BRANCH  16  17
ATOM     17  C   ARG A   2      28.036  31.927  27.224  0.00  0.00    +0.227 C 
ATOM     18  O   ARG A   2      28.329  31.631  26.067  0.00  0.00    -0.286 OA
ENDBRANCH  16  17
BRANCH  16  19
ATOM     19  CB  ARG A   2      28.722  30.209  28.946  0.00  0.00    +0.031 C 
BRANCH  19  20
ATOM     20  CG  ARG A   2      28.287  29.372  30.152  0.00  0.00    +0.045 C 
BRANCH  20  21
ATOM     21  CD  ARG A   2      27.627  30.238  31.228  0.00  0.00    +0.174 C 
BRANCH  21  22
ATOM     22  NE  ARG A   2      28.620  31.081  31.889  0.00  0.00    -0.265 N 
ATOM     23  CZ  ARG A   2      29.121  30.846  33.099  0.00  0.00    +0.342 C 
ATOM     24  NH2 ARG A   2      28.708  29.803  33.812  0.00  0.00    -0.292 N 
ATOM     25 HH21 ARG A   2      29.106  29.628  34.757  0.00  0.00    +0.255 HD
ATOM     26 HH22 ARG A   2      27.987  29.161  33.425  0.00  0.00    +0.255 HD
ATOM     27  NH1 ARG A   2      30.030  31.666  33.600  0.00  0.00    -0.292 N 
ATOM     28 HH11 ARG A   2      30.426  31.488  34.545  0.00  0.00    +0.255 HD
ATOM     29 HH12 ARG A   2      30.349  32.488  33.049  0.00  0.00    +0.255 HD
ATOM     30  HE  ARG A   2      28.958  31.922  31.379  0.00  0.00    +0.259 HD
ENDBRANCH  21  22
ENDBRANCH  20  21
ENDBRANCH  19  20
ENDBRANCH  16  19
ENDBRANCH   2  16
TORSDOF 13
REMARK  Name = ../refined-set-2016/2pyi/2pyi_pocket.pdb
REMARK  269 active torsions:
REMARK  status: ('A' for Active; 'I' for Inactive)
REMARK    1  A    between atoms: _1  and  _3
REMARK    2  A    between atoms: _3  and  _4
REMARK    3  A    between atoms: _3  and  _6
REMARK    4  A    between atoms: _6  and  _7
REMARK    5  A    between atoms: _12  and  _13
REMARK    6  A    between atoms: _15  and  _17
REMARK    7  A    between atoms: _17  and  _18
REMARK    8  A    between atoms: _17  and  _20
REMARK    9  A    between atoms: _20  and  _21
REMARK   10  A    between atoms: _21  and  _22
REMARK   11  A    between atoms: _25  and  _27
REMARK   12  A    between atoms: _27  and  _28
REMARK   13  A    between atoms: _27  and  _30
REMARK   14  A    between atoms: _30  and  _31
REMARK   15  A    between atoms: _36  and  _38
REMARK   16  A    between atoms: _38  and  _39
REMARK   17  A    between atoms: _41  and  _43
REMARK   18  A    between atoms: _43  and  _44
REMARK   19  A    between atoms: _46  and  _48
REMARK   20  A    between atoms: _48  and  _49
REMARK   21  A    between atoms: _48  and  _51
REMARK   22  A    between atoms: _51  and  _52
REMARK   23  A    between atoms: _55  and  _57
REMARK   24  A    between atoms: _57  and  _58
REMARK   25  A    between atoms: _60  and  _62
REMARK   26  A    between atoms: _62  and  _63
REMARK   27  A    between atoms: _62  and  _65
REMARK   28  A    between atoms: _65  and  _66
REMARK   29  A    between atoms: _66  and  _67
REMARK   30  A    between atoms: _67  and  _68
REMARK   31  A    between atoms: _77  and  _79
REMARK   32  A    between atoms: _79  and  _80
REMARK   33  A    between atoms: _79  and  _82
REMARK   34  A    between atoms: _82  and  _83
REMARK   35  A    between atoms: _86  and  _88
REMARK   36  A    between atoms: _88  and  _89
REMARK   37  A    between atoms: _92  and  _94
REMARK   38  A    between atoms: _94  and  _95
REMARK   39  A    between atoms: _94  and  _97
REMARK   40  A    between atoms: _97  and  _98
REMARK   41  A    between atoms: _104  and  _106
REMARK   42  A    between atoms: _106  and  _107
REMARK   43  A    between atoms: _106  and  _109
REMARK   44  A    between atoms: _109  and  _110
REMARK   45  A    between atoms: _115  and  _116
REMARK   46  A    between atoms: _119  and  _120
REMARK   47  A    between atoms: _125  and  _127
REMARK   48  A    between atoms: _127  and  _128
REMARK   49  A    between atoms: _127  and  _130
REMARK   50  A    between atoms: _130  and  _131
REMARK   51  A    between atoms: _136  and  _138
REMARK   52  A    between atoms: _138  and  _139
REMARK   53  A    between atoms: _138  and  _141
REMARK   54  A    between atoms: _141  and  _142
REMARK   55  A    between atoms: _145  and  _147
REMARK   56  A    between atoms: _147  and  _148
REMARK   57  A    between atoms: _147  and  _150
REMARK   58  A    between atoms: _150  and  _151
REMARK   59  A    between atoms: _156  and  _158
REMARK   60  A    between atoms: _158  and  _159
REMARK   61  A    between atoms: _158  and  _161
REMARK   62  A    between atoms: _161  and  _162
REMARK   63  A    between atoms: _168  and  _170
REMARK   64  A    between atoms: _170  and  _171
REMARK   65  A    between atoms: _170  and  _173
REMARK   66  A    between atoms: _173  and  _174
REMARK   67  A    between atoms: _180  and  _182
REMARK   68  A    between atoms: _182  and  _183
REMARK   69  A    between atoms: _182  and  _185
REMARK   70  A    between atoms: _185  and  _186
REMARK   71  A    between atoms: _186  and  _187
REMARK   72  A    between atoms: _190  and  _192
REMARK   73  A    between atoms: _192  and  _193
REMARK   74  A    between atoms: _195  and  _197
REMARK   75  A    between atoms: _197  and  _198
REMARK   76  A    between atoms: _197  and  _200
REMARK   77  A    between atoms: _200  and  _201
REMARK   78  A    between atoms: _201  and  _202
REMARK   79  A    between atoms: _202  and  _203
REMARK   80  A    between atoms: _203  and  _204
REMARK   81  A    between atoms: _208  and  _210
REMARK   82  A    between atoms: _210  and  _211
REMARK   83  A    between atoms: _210  and  _213
REMARK   84  A    between atoms: _213  and  _214
REMARK   85  A    between atoms: _214  and  _215
REMARK   86  A    between atoms: _215  and  _216
REMARK   87  A    between atoms: _225  and  _227
REMARK   88  A    between atoms: _227  and  _228
REMARK   89  A    between atoms: _227  and  _230
REMARK   90  A    between atoms: _230  and  _231
REMARK   91  A    between atoms: _231  and  _232
REMARK   92  A    between atoms: _235  and  _237
REMARK   93  A    between atoms: _237  and  _238
REMARK   94  A    between atoms: _237  and  _240
REMARK   95  A    between atoms: _240  and  _241
REMARK   96  A    between atoms: _246  and  _248
REMARK   97  A    between atoms: _248  and  _249
REMARK   98  A    between atoms: _248  and  _251
REMARK   99  A    between atoms: _251  and  _252
REMARK  100  A    between atoms: _255  and  _257
REMARK  101  A    between atoms: _257  and  _258
REMARK  102  A    between atoms: _257  and  _260
REMARK  103  A    between atoms: _260  and  _261
REMARK  104  A    between atoms: _264  and  _266
REMARK  105  A    between atoms: _266  and  _267
REMARK  106  A    between atoms: _266  and  _269
REMARK  107  A    between atoms: _269  and  _270
REMARK  108  A    between atoms: _275  and  _277
REMARK  109  A    between atoms: _277  and  _278
REMARK  110  A    between atoms: _277  and  _280
REMARK  111  A    between atoms: _280  and  _281
REMARK  112  A    between atoms: _284  and  _286
REMARK  113  A    between atoms: _286  and  _287
REMARK  114  A    between atoms: _286  and  _289
REMARK  115  A    between atoms: _289  and  _290
REMARK  116  A    between atoms: _295  and  _297
REMARK  117  A    between atoms: _297  and  _298
REMARK  118  A    between atoms: _297  and  _300
REMARK  119  A    between atoms: _300  and  _301
REMARK  120  A    between atoms: _306  and  _308
REMARK  121  A    between atoms: _308  and  _309
REMARK  122  A    between atoms: _308  and  _311
REMARK  123  A    between atoms: _311  and  _312
REMARK  124  A    between atoms: _315  and  _317
REMARK  125  A    between atoms: _317  and  _318
REMARK  126  A    between atoms: _317  and  _320
REMARK  127  A    between atoms: _323  and  _325
REMARK  128  A    between atoms: _325  and  _326
REMARK  129  A    between atoms: _325  and  _328
REMARK  130  A    between atoms: _328  and  _329
REMARK  131  A    between atoms: _333  and  _334
REMARK  132  A    between atoms: _339  and  _341
REMARK  133  A    between atoms: _341  and  _342
REMARK  134  A    between atoms: _341  and  _344
REMARK  135  A    between atoms: _344  and  _345
REMARK  136  A    between atoms: _345  and  _346
REMARK  137  A    between atoms: _349  and  _351
REMARK  138  A    between atoms: _351  and  _352
REMARK  139  A    between atoms: _355  and  _357
REMARK  140  A    between atoms: _357  and  _358
REMARK  141  A    between atoms: _357  and  _360
REMARK  142  A    between atoms: _360  and  _361
REMARK  143  A    between atoms: _364  and  _366
REMARK  144  A    between atoms: _366  and  _367
REMARK  145  A    between atoms: _366  and  _369
REMARK  146  A    between atoms: _369  and  _370
REMARK  147  A    between atoms: _370  and  _371
REMARK  148  A    between atoms: _374  and  _376
REMARK  149  A    between atoms: _376  and  _377
REMARK  150  A    between atoms: _376  and  _379
REMARK  151  A    between atoms: _379  and  _380
REMARK  152  A    between atoms: _385  and  _387
REMARK  153  A    between atoms: _387  and  _388
REMARK  154  A    between atoms: _390  and  _392
REMARK  155  A    between atoms: _392  and  _393
REMARK  156  A    between atoms: _392  and  _395
REMARK  157  A    between atoms: _398  and  _400
REMARK  158  A    between atoms: _400  and  _401
REMARK  159  A    between atoms: _404  and  _406
REMARK  160  A    between atoms: _406  and  _407
REMARK  161  A    between atoms: _406  and  _409
REMARK  162  A    between atoms: _409  and  _410
REMARK  163  A    between atoms: _415  and  _417
REMARK  164  A    between atoms: _417  and  _418
REMARK  165  A    between atoms: _417  and  _420
REMARK  166  A    between atoms: _420  and  _421
REMARK  167  A    between atoms: _421  and  _422
REMARK  168  A    between atoms: _422  and  _423
REMARK  169  A    between atoms: _423  and  _424
REMARK  170  A    between atoms: _428  and  _430
REMARK  171  A    between atoms: _430  and  _431
REMARK  172  A    between atoms: _430  and  _433
REMARK  173  A    between atoms: _433  and  _434
REMARK  174  A    between atoms: _437  and  _439
REMARK  175  A    between atoms: _439  and  _440
REMARK  176  A    between atoms: _439  and  _442
REMARK  177  A    between atoms: _442  and  _443
REMARK  178  A    between atoms: _448  and  _450
REMARK  179  A    between atoms: _450  and  _451
REMARK  180  A    between atoms: _453  and  _455
REMARK  181  A    between atoms: _455  and  _456
REMARK  182  A    between atoms: _455  and  _458
REMARK  183  A    between atoms: _458  and  _459
REMARK  184  A    between atoms: _459  and  _460
REMARK  185  A    between atoms: _460  and  _461
REMARK  186  A    between atoms: _461  and  _462
REMARK  187  A    between atoms: _466  and  _468
REMARK  188  A    between atoms: _468  and  _469
REMARK  189  A    between atoms: _468  and  _471
REMARK  190  A    between atoms: _471  and  _472
REMARK  191  A    between atoms: _472  and  _473
REMARK  192  A    between atoms: _473  and  _474
REMARK  193  A    between atoms: _483  and  _485
REMARK  194  A    between atoms: _485  and  _486
REMARK  195  A    between atoms: _485  and  _488
REMARK  196  A    between atoms: _488  and  _489
REMARK  197  A    between atoms: _494  and  _496
REMARK  198  A    between atoms: _496  and  _497
REMARK  199  A    between atoms: _496  and  _499
REMARK  200  A    between atoms: _499  and  _500
REMARK  201  A    between atoms: _505  and  _506
REMARK  202  A    between atoms: _508  and  _510
REMARK  203  A    between atoms: _510  and  _511
REMARK  204  A    between atoms: _510  and  _513
REMARK  205  A    between atoms: _513  and  _514
REMARK  206  A    between atoms: _514  and  _515
REMARK  207  A    between atoms: _515  and  _516
REMARK  208  A    between atoms: _516  and  _517
REMARK  209  A    between atoms: _521  and  _523
REMARK  210  A    between atoms: _523  and  _524
REMARK  211  A    between atoms: _523  and  _526
REMARK  212  A    between atoms: _526  and  _527
REMARK  213  A    between atoms: _529  and  _531
REMARK  214  A    between atoms: _531  and  _532
REMARK  215  A    between atoms: _531  and  _534
REMARK  216  A    between atoms: _534  and  _535
REMARK  217  A    between atoms: _538  and  _540
REMARK  218  A    between atoms: _540  and  _541
REMARK  219  A    between atoms: _540  and  _543
REMARK  220  A    between atoms: _543  and  _544
REMARK  221  A    between atoms: _544  and  _545
REMARK  222  A    between atoms: _548  and  _550
REMARK  223  A    between atoms: _550  and  _551
REMARK  224  A    between atoms: _554  and  _556
REMARK  225  A    between atoms: _556  and  _557
REMARK  226  A    between atoms: _556  and  _559
REMARK  227  A    between atoms: _559  and  _560
REMARK  228  A    between atoms: _562  and  _564
REMARK  229  A    between atoms: _564  and  _565
REMARK  230  A    between atoms: _567  and  _569
REMARK  231  A    between atoms: _569  and  _570
REMARK  232  A    between atoms: _569  and  _572
REMARK  233  A    between atoms: _572  and  _573
REMARK  234  A    between atoms: _576  and  _578
REMARK  235  A    between atoms: _578  and  _579
REMARK  236  A    between atoms: _581  and  _583
REMARK  237  A    between atoms: _583  and  _584
REMARK  238  A    between atoms: _583  and  _586
REMARK  239  A    between atoms: _586  and  _587
REMARK  240  A    between atoms: _592  and  _594
REMARK  241  A    between atoms: _594  and  _595
REMARK  242  A    between atoms: _594  and  _597
REMARK  243  A    between atoms: _597  and  _598
REMARK  244  A    between atoms: _598  and  _599
REMARK  245  A    between atoms: _606  and  _607
REMARK  246  A    between atoms: _607  and  _623
REMARK  247  A    between atoms: _608  and  _610
REMARK  248  A    between atoms: _610  and  _611
REMARK  249  A    between atoms: _611  and  _612
REMARK  250  A    between atoms: _616  and  _618
REMARK  251  A    between atoms: _618  and  _619
REMARK  252  A    between atoms: _618  and  _626
REMARK  253  A    between atoms: _619  and  _620
REMARK  254  A    between atoms: _620  and  _621
REMARK  255  A    between atoms: _621  and  _622
REMARK  256  A    between atoms: _622  and  _623
REMARK  257  A    between atoms: _628  and  _630
REMARK  258  A    between atoms: _630  and  _631
REMARK  259  A    between atoms: _630  and  _633
REMARK  260  A    between atoms: _633  and  _634
REMARK  261  A    between atoms: _637  and  _639
REMARK  262  A    between atoms: _639  and  _640
REMARK  263  A    between atoms: _642  and  _644
REMARK  264  A    between atoms: _644  and  _645
REMARK  265  A    between atoms: _648  and  _650
REMARK  266  A    between atoms: _650  and  _651
REMARK  267  A    between atoms: _650  and  _653
REMARK  268  A    between atoms: _653  and  _654
REMARK  269  A    between atoms: _659  and  _660
REMARK                            x       y       z     vdW  Elec       q    Type
REMARK                         _______ _______ _______ _____ _____    ______ ____
ROOT
ATOM      1  CB  HIS A   1      32.283  32.550  24.939  0.00  0.00    +0.072 C 
ENDROOT
BRANCH   1   2
ATOM      2  CG  HIS A   1      32.457  31.878  26.261  0.00  0.00    +0.082 A 
ATOM      3  CD2 HIS A   1      31.604  31.128  26.999  0.00  0.00    +0.115 A 
ATOM      4  NE2 HIS A   1      32.276  30.754  28.137  0.00  0.00    -0.221 NA
ATOM      5  CE1 HIS A   1      33.502  31.247  28.094  0.00  0.00    +0.199 A 
ATOM      6  ND1 HIS A   1      33.638  31.930  26.971  0.00  0.00    -0.227 NA
ENDBRANCH   1   2
BRANCH   1   7
ATOM      7  CA  HIS A   1      31.825  34.012  25.035  0.00  0.00    +0.139 C 
BRANCH   7   8
ATOM      8  N   HIS A   1      30.411  34.087  25.391  0.00  0.00    -0.239 NA
ATOM      9  H   HIS A   1      29.701  33.961  24.641  0.00  0.00    +0.142 HD
ENDBRANCH   7   8
BRANCH   7  10
ATOM     10  C   HIS A   1      32.069  34.658  23.689  0.00  0.00    +0.224 C 
ATOM     11  O   HIS A   1      31.245  34.547  22.776  0.00  0.00    -0.287 OA
ENDBRANCH   7  10
ENDBRANCH   1   7
TORSDOF 4
REMARK  Name = ../refined-set-2016/2pyi/2pyi_pocket.pdb
REMARK  269 active torsions:
REMARK  status: ('A' for Active; 'I' for Inactive)
REMARK    1  A    between atoms: _1  and  _3
REMARK    2  A    between atoms: _3  and  _4
REMARK    3  A    between atoms: _3  and  _6
REMARK    4  A    between atoms: _6  and  _7
REMARK    5  A    between atoms: _12  and  _13
REMARK    6  A    between atoms: _15  and  _17
REMARK    7  A    between atoms: _17  and  _18
REMARK    8  A    between atoms: _17  and  _20
REMARK    9  A    between atoms: _20  and  _21
REMARK   10  A    between atoms: _21  and  _22
REMARK   11  A    between atoms: _25  and  _27
REMARK   12  A    between atoms: _27  and  _28
REMARK   13  A    between atoms: _27  and  _30
REMARK   14  A    between atoms: _30  and  _31
REMARK   15  A    between atoms: _36  and  _38
REMARK   16  A    between atoms: _38  and  _39
REMARK   17  A    between atoms: _41  and  _43
REMARK   18  A    between atoms: _43  and  _44
REMARK   19  A    between atoms: _46  and  _48
REMARK   20  A    between atoms: _48  and  _49
REMARK   21  A    between atoms: _48  and  _51
REMARK   22  A    between atoms: _51  and  _52
REMARK   23  A    between atoms: _55  and  _57
REMARK   24  A    between atoms: _57  and  _58
REMARK   25  A    between atoms: _60  and  _62
REMARK   26  A    between atoms: _62  and  _63
REMARK   27  A    between atoms: _62  and  _65
REMARK   28  A    between atoms: _65  and  _66
REMARK   29  A    between atoms: _66  and  _67
REMARK   30  A    between atoms: _67  and  _68
REMARK   31  A    between atoms: _77  and  _79
REMARK   32  A    between atoms: _79  and  _80
REMARK   33  A    between atoms: _79  and  _82
REMARK   34  A    between atoms: _82  and  _83
REMARK   35  A    between atoms: _86  and  _88
REMARK   36  A    between atoms: _88  and  _89
REMARK   37  A    between atoms: _92  and  _94
REMARK   38  A    between atoms: _94  and  _95
REMARK   39  A    between atoms: _94  and  _97
REMARK   40  A    between atoms: _97  and  _98
REMARK   41  A    between atoms: _104  and  _106
REMARK   42  A    between atoms: _106  and  _107
REMARK   43  A    between atoms: _106  and  _109
REMARK   44  A    between atoms: _109  and  _110
REMARK   45  A    between atoms: _115  and  _116
REMARK   46  A    between atoms: _119  and  _120
REMARK   47  A    between atoms: _125  and  _127
REMARK   48  A    between atoms: _127  and  _128
REMARK   49  A    between atoms: _127  and  _130
REMARK   50  A    between atoms: _130  and  _131
REMARK   51  A    between atoms: _136  and  _138
REMARK   52  A    between atoms: _138  and  _139
REMARK   53  A    between atoms: _138  and  _141
REMARK   54  A    between atoms: _141  and  _142
REMARK   55  A    between atoms: _145  and  _147
REMARK   56  A    between atoms: _147  and  _148
REMARK   57  A    between atoms: _147  and  _150
REMARK   58  A    between atoms: _150  and  _151
REMARK   59  A    between atoms: _156  and  _158
REMARK   60  A    between atoms: _158  and  _159
REMARK   61  A    between atoms: _158  and  _161
REMARK   62  A    between atoms: _161  and  _162
REMARK   63  A    between atoms: _168  and  _170
REMARK   64  A    between atoms: _170  and  _171
REMARK   65  A    between atoms: _170  and  _173
REMARK   66  A    between atoms: _173  and  _174
REMARK   67  A    between atoms: _180  and  _182
REMARK   68  A    between atoms: _182  and  _183
REMARK   69  A    between atoms: _182  and  _185
REMARK   70  A    between atoms: _185  and  _186
REMARK   71  A    between atoms: _186  and  _187
REMARK   72  A    between atoms: _190  and  _192
REMARK   73  A    between atoms: _192  and  _193
REMARK   74  A    between atoms: _195  and  _197
REMARK   75  A    between atoms: _197  and  _198
REMARK   76  A    between atoms: _197  and  _200
REMARK   77  A    between atoms: _200  and  _201
REMARK   78  A    between atoms: _201  and  _202
REMARK   79  A    between atoms: _202  and  _203
REMARK   80  A    between atoms: _203  and  _204
REMARK   81  A    between atoms: _208  and  _210
REMARK   82  A    between atoms: _210  and  _211
REMARK   83  A    between atoms: _210  and  _213
REMARK   84  A    between atoms: _213  and  _214
REMARK   85  A    between atoms: _214  and  _215
REMARK   86  A    between atoms: _215  and  _216
REMARK   87  A    between atoms: _225  and  _227
REMARK   88  A    between atoms: _227  and  _228
REMARK   89  A    between atoms: _227  and  _230
REMARK   90  A    between atoms: _230  and  _231
REMARK   91  A    between atoms: _231  and  _232
REMARK   92  A    between atoms: _235  and  _237
REMARK   93  A    between atoms: _237  and  _238
REMARK   94  A    between atoms: _237  and  _240
REMARK   95  A    between atoms: _240  and  _241
REMARK   96  A    between atoms: _246  and  _248
REMARK   97  A    between atoms: _248  and  _249
REMARK   98  A    between atoms: _248  and  _251
REMARK   99  A    between atoms: _251  and  _252
REMARK  100  A    between atoms: _255  and  _257
REMARK  101  A    between atoms: _257  and  _258
REMARK  102  A    between atoms: _257  and  _260
REMARK  103  A    between atoms: _260  and  _261
REMARK  104  A    between atoms: _264  and  _266
REMARK  105  A    between atoms: _266  and  _267
REMARK  106  A    between atoms: _266  and  _269
REMARK  107  A    between atoms: _269  and  _270
REMARK  108  A    between atoms: _275  and  _277
REMARK  109  A    between atoms: _277  and  _278
REMARK  110  A    between atoms: _277  and  _280
REMARK  111  A    between atoms: _280  and  _281
REMARK  112  A    between atoms: _284  and  _286
REMARK  113  A    between atoms: _286  and  _287
REMARK  114  A    between atoms: _286  and  _289
REMARK  115  A    between atoms: _289  and  _290
REMARK  116  A    between atoms: _295  and  _297
REMARK  117  A    between atoms: _297  and  _298
REMARK  118  A    between atoms: _297  and  _300
REMARK  119  A    between atoms: _300  and  _301
REMARK  120  A    between atoms: _306  and  _308
REMARK  121  A    between atoms: _308  and  _309
REMARK  122  A    between atoms: _308  and  _311
REMARK  123  A    between atoms: _311  and  _312
REMARK  124  A    between atoms: _315  and  _317
REMARK  125  A    between atoms: _317  and  _318
REMARK  126  A    between atoms: _317  and  _320
REMARK  127  A    between atoms: _323  and  _325
REMARK  128  A    between atoms: _325  and  _326
REMARK  129  A    between atoms: _325  and  _328
REMARK  130  A    between atoms: _328  and  _329
REMARK  131  A    between atoms: _333  and  _334
REMARK  132  A    between atoms: _339  and  _341
REMARK  133  A    between atoms: _341  and  _342
REMARK  134  A    between atoms: _341  and  _344
REMARK  135  A    between atoms: _344  and  _345
REMARK  136  A    between atoms: _345  and  _346
REMARK  137  A    between atoms: _349  and  _351
REMARK  138  A    between atoms: _351  and  _352
REMARK  139  A    between atoms: _355  and  _357
REMARK  140  A    between atoms: _357  and  _358
REMARK  141  A    between atoms: _357  and  _360
REMARK  142  A    between atoms: _360  and  _361
REMARK  143  A    between atoms: _364  and  _366
REMARK  144  A    between atoms: _366  and  _367
REMARK  145  A    between atoms: _366  and  _369
REMARK  146  A    between atoms: _369  and  _370
REMARK  147  A    between atoms: _370  and  _371
REMARK  148  A    between atoms: _374  and  _376
REMARK  149  A    between atoms: _376  and  _377
REMARK  150  A    between atoms: _376  and  _379
REMARK  151  A    between atoms: _379  and  _380
REMARK  152  A    between atoms: _385  and  _387
REMARK  153  A    between atoms: _387  and  _388
REMARK  154  A    between atoms: _390  and  _392
REMARK  155  A    between atoms: _392  and  _393
REMARK  156  A    between atoms: _392  and  _395
REMARK  157  A    between atoms: _398  and  _400
REMARK  158  A    between atoms: _400  and  _401
REMARK  159  A    between atoms: _404  and  _406
REMARK  160  A    between atoms: _406  and  _407
REMARK  161  A    between atoms: _406  and  _409
REMARK  162  A    between atoms: _409  and  _410
REMARK  163  A    between atoms: _415  and  _417
REMARK  164  A    between atoms: _417  and  _418
REMARK  165  A    between atoms: _417  and  _420
REMARK  166  A    between atoms: _420  and  _421
REMARK  167  A    between atoms: _421  and  _422
REMARK  168  A    between atoms: _422  and  _423
REMARK  169  A    between atoms: _423  and  _424
REMARK  170  A    between atoms: _428  and  _430
REMARK  171  A    between atoms: _430  and  _431
REMARK  172  A    between atoms: _430  and  _433
REMARK  173  A    between atoms: _433  and  _434
REMARK  174  A    between atoms: _437  and  _439
REMARK  175  A    between atoms: _439  and  _440
REMARK  176  A    between atoms: _439  and  _442
REMARK  177  A    between atoms: _442  and  _443
REMARK  178  A    between atoms: _448  and  _450
REMARK  179  A    between atoms: _450  and  _451
REMARK  180  A    between atoms: _453  and  _455
REMARK  181  A    between atoms: _455  and  _456
REMARK  182  A    between atoms: _455  and  _458
REMARK  183  A    between atoms: _458  and  _459
REMARK  184  A    between atoms: _459  and  _460
REMARK  185  A    between atoms: _460  and  _461
REMARK  186  A    between atoms: _461  and  _462
REMARK  187  A    between atoms: _466  and  _468
REMARK  188  A    between atoms: _468  and  _469
REMARK  189  A    between atoms: _468  and  _471
REMARK  190  A    between atoms: _471  and  _472
REMARK  191  A    between atoms: _472  and  _473
REMARK  192  A    between atoms: _473  and  _474
REMARK  193  A    between atoms: _483  and  _485
REMARK  194  A    between atoms: _485  and  _486
REMARK  195  A    between atoms: _485  and  _488
REMARK  196  A    between atoms: _488  and  _489
REMARK  197  A    between atoms: _494  and  _496
REMARK  198  A    between atoms: _496  and  _497
REMARK  199  A    between atoms: _496  and  _499
REMARK  200  A    between atoms: _499  and  _500
REMARK  201  A    between atoms: _505  and  _506
REMARK  202  A    between atoms: _508  and  _510
REMARK  203  A    between atoms: _510  and  _511
REMARK  204  A    between atoms: _510  and  _513
REMARK  205  A    between atoms: _513  and  _514
REMARK  206  A    between atoms: _514  and  _515
REMARK  207  A    between atoms: _515  and  _516
REMARK  208  A    between atoms: _516  and  _517
REMARK  209  A    between atoms: _521  and  _523
REMARK  210  A    between atoms: _523  and  _524
REMARK  211  A    between atoms: _523  and  _526
REMARK  212  A    between atoms: _526  and  _527
REMARK  213  A    between atoms: _529  and  _531
REMARK  214  A    between atoms: _531  and  _532
REMARK  215  A    between atoms: _531  and  _534
REMARK  216  A    between atoms: _534  and  _535
REMARK  217  A    between atoms: _538  and  _540
REMARK  218  A    between atoms: _540  and  _541
REMARK  219  A    between atoms: _540  and  _543
REMARK  220  A    between atoms: _543  and  _544
REMARK  221  A    between atoms: _544  and  _545
REMARK  222  A    between atoms: _548  and  _550
REMARK  223  A    between atoms: _550  and  _551
REMARK  224  A    between atoms: _554  and  _556
REMARK  225  A    between atoms: _556  and  _557
REMARK  226  A    between atoms: _556  and  _559
REMARK  227  A    between atoms: _559  and  _560
REMARK  228  A    between atoms: _562  and  _564
REMARK  229  A    between atoms: _564  and  _565
REMARK  230  A    between atoms: _567  and  _569
REMARK  231  A    between atoms: _569  and  _570
REMARK  232  A    between atoms: _569  and  _572
REMARK  233  A    between atoms: _572  and  _573
REMARK  234  A    between atoms: _576  and  _578
REMARK  235  A    between atoms: _578  and  _579
REMARK  236  A    between atoms: _581  and  _583
REMARK  237  A    between atoms: _583  and  _584
REMARK  238  A    between atoms: _583  and  _586
REMARK  239  A    between atoms: _586  and  _587
REMARK  240  A    between atoms: _592  and  _594
REMARK  241  A    between atoms: _594  and  _595
REMARK  242  A    between atoms: _594  and  _597
REMARK  243  A    between atoms: _597  and  _598
REMARK  244  A    between atoms: _598  and  _599
REMARK  245  A    between atoms: _606  and  _607
REMARK  246  A    between atoms: _607  and  _623
REMARK  247  A    between atoms: _608  and  _610
REMARK  248  A    between atoms: _610  and  _611
REMARK  249  A    between atoms: _611  and  _612
REMARK  250  A    between atoms: _616  and  _618
REMARK  251  A    between atoms: _618  and  _619
REMARK  252  A    between atoms: _618  and  _626
REMARK  253  A    between atoms: _619  and  _620
REMARK  254  A    between atoms: _620  and  _621
REMARK  255  A    between atoms: _621  and  _622
REMARK  256  A    between atoms: _622  and  _623
REMARK  257  A    between atoms: _628  and  _630
REMARK  258  A    between atoms: _630  and  _631
REMARK  259  A    between atoms: _630  and  _633
REMARK  260  A    between atoms: _633  and  _634
REMARK  261  A    between atoms: _637  and  _639
REMARK  262  A    between atoms: _639  and  _640
REMARK  263  A    between atoms: _642  and  _644
REMARK  264  A    between atoms: _644  and  _645
REMARK  265  A    between atoms: _648  and  _650
REMARK  266  A    between atoms: _650  and  _651
REMARK  267  A    between atoms: _650  and  _653
REMARK  268  A    between atoms: _653  and  _654
REMARK  269  A    between atoms: _659  and  _660
REMARK                            x       y       z     vdW  Elec       q    Type
REMARK                         _______ _______ _______ _____ _____    ______ ____
ROOT
ATOM      1  C   TYR A   1      33.067  31.770  20.213  0.00  0.00    +0.239 C 
ATOM      2  N   LYS A   2      32.051  31.827  21.073  0.00  0.00    -0.298 N 
ATOM      3  H   LYS A   2      32.215  32.243  22.012  0.00  0.00    +0.150 HD
ATOM      4  O   TYR A   1      32.988  31.259  19.096  0.00  0.00    -0.274 OA
ENDROOT
BRANCH   1   5
ATOM      5  CA  TYR A   1      34.393  32.365  20.681  0.00  0.00    +0.149 C 
BRANCH   5   6
ATOM      6  N   TYR A   1      34.251  33.488  21.617  0.00  0.00    -0.238 NA
ATOM      7  H   TYR A   1      34.580  33.385  22.598  0.00  0.00    +0.142 HD
ENDBRANCH   5   6
BRANCH   5   8
ATOM      8  CB  TYR A   1      35.335  31.284  21.219  0.00  0.00    +0.053 C 
BRANCH   8   9
ATOM      9  CG  TYR A   1      34.731  30.176  22.065  0.00  0.00    -0.020 A 
ATOM     10  CD2 TYR A   1      34.718  30.262  23.455  0.00  0.00    -0.001 A 
ATOM     11  CE2 TYR A   1      34.192  29.229  24.237  0.00  0.00    +0.036 A 
ATOM     12  CZ  TYR A   1      33.689  28.094  23.620  0.00  0.00    +0.134 A 
ATOM     13  CE1 TYR A   1      33.704  27.980  22.238  0.00  0.00    +0.036 A 
ATOM     14  CD1 TYR A   1      34.229  29.012  21.472  0.00  0.00    -0.001 A 
BRANCH  12  15
ATOM     15  OH  TYR A   1      33.176  27.068  24.381  0.00  0.00    -0.506 OA
ATOM     16  HH  TYR A   1      32.863  26.342  23.786  0.00  0.00    +0.292 HD
ENDBRANCH  12  15
ENDBRANCH   8   9
ENDBRANCH   5   8
ENDBRANCH   1   5
BRANCH   2  17
ATOM     17  CA  LYS A   2      30.705  31.325  20.747  0.00  0.00    +0.137 C 
BRANCH  17  18
ATOM     18  C   LYS A   2      29.937  32.298  19.836  0.00  0.00    +0.227 C 
ATOM     19  O   LYS A   2      28.905  31.944  19.243  0.00  0.00    -0.286 OA
ENDBRANCH  17  18
BRANCH  17  20
ATOM     20  CB  LYS A   2      29.919  31.041  22.030  0.00  0.00    +0.028 C 
BRANCH  20  21
ATOM     21  CG  LYS A   2      30.400  29.795  22.786  0.00  0.00    -0.000 C 
BRANCH  21  22
ATOM     22  CD  LYS A   2      29.658  29.646  24.112  0.00  0.00    -0.024 C 
BRANCH  22  23
ATOM     23  CE  LYS A   2      30.216  28.516  24.971  0.00  0.00    -0.086 C 
BRANCH  23  24
ATOM     24  NZ  LYS A   2      29.841  27.155  24.471  0.00  0.00    +0.380 N 
ATOM     25  HZ1 LYS A   2      30.250  26.432  25.097  0.00  0.00    -0.089 HD
ATOM     26  HZ2 LYS A   2      28.805  27.063  24.464  0.00  0.00    -0.089 HD
ATOM     27  HZ3 LYS A   2      30.208  27.028  23.506  0.00  0.00    -0.089 HD
ENDBRANCH  23  24
ENDBRANCH  22  23
ENDBRANCH  21  22
ENDBRANCH  20  21
ENDBRANCH  17  20
ENDBRANCH   2  17
TORSDOF 12
REMARK  Name = ../refined-set-2016/2pyi/2pyi_pocket.pdb
REMARK  269 active torsions:
REMARK  status: ('A' for Active; 'I' for Inactive)
REMARK    1  A    between atoms: _1  and  _3
REMARK    2  A    between atoms: _3  and  _4
REMARK    3  A    between atoms: _3  and  _6
REMARK    4  A    between atoms: _6  and  _7
REMARK    5  A    between atoms: _12  and  _13
REMARK    6  A    between atoms: _15  and  _17
REMARK    7  A    between atoms: _17  and  _18
REMARK    8  A    between atoms: _17  and  _20
REMARK    9  A    between atoms: _20  and  _21
REMARK   10  A    between atoms: _21  and  _22
REMARK   11  A    between atoms: _25  and  _27
REMARK   12  A    between atoms: _27  and  _28
REMARK   13  A    between atoms: _27  and  _30
REMARK   14  A    between atoms: _30  and  _31
REMARK   15  A    between atoms: _36  and  _38
REMARK   16  A    between atoms: _38  and  _39
REMARK   17  A    between atoms: _41  and  _43
REMARK   18  A    between atoms: _43  and  _44
REMARK   19  A    between atoms: _46  and  _48
REMARK   20  A    between atoms: _48  and  _49
REMARK   21  A    between atoms: _48  and  _51
REMARK   22  A    between atoms: _51  and  _52
REMARK   23  A    between atoms: _55  and  _57
REMARK   24  A    between atoms: _57  and  _58
REMARK   25  A    between atoms: _60  and  _62
REMARK   26  A    between atoms: _62  and  _63
REMARK   27  A    between atoms: _62  and  _65
REMARK   28  A    between atoms: _65  and  _66
REMARK   29  A    between atoms: _66  and  _67
REMARK   30  A    between atoms: _67  and  _68
REMARK   31  A    between atoms: _77  and  _79
REMARK   32  A    between atoms: _79  and  _80
REMARK   33  A    between atoms: _79  and  _82
REMARK   34  A    between atoms: _82  and  _83
REMARK   35  A    between atoms: _86  and  _88
REMARK   36  A    between atoms: _88  and  _89
REMARK   37  A    between atoms: _92  and  _94
REMARK   38  A    between atoms: _94  and  _95
REMARK   39  A    between atoms: _94  and  _97
REMARK   40  A    between atoms: _97  and  _98
REMARK   41  A    between atoms: _104  and  _106
REMARK   42  A    between atoms: _106  and  _107
REMARK   43  A    between atoms: _106  and  _109
REMARK   44  A    between atoms: _109  and  _110
REMARK   45  A    between atoms: _115  and  _116
REMARK   46  A    between atoms: _119  and  _120
REMARK   47  A    between atoms: _125  and  _127
REMARK   48  A    between atoms: _127  and  _128
REMARK   49  A    between atoms: _127  and  _130
REMARK   50  A    between atoms: _130  and  _131
REMARK   51  A    between atoms: _136  and  _138
REMARK   52  A    between atoms: _138  and  _139
REMARK   53  A    between atoms: _138  and  _141
REMARK   54  A    between atoms: _141  and  _142
REMARK   55  A    between atoms: _145  and  _147
REMARK   56  A    between atoms: _147  and  _148
REMARK   57  A    between atoms: _147  and  _150
REMARK   58  A    between atoms: _150  and  _151
REMARK   59  A    between atoms: _156  and  _158
REMARK   60  A    between atoms: _158  and  _159
REMARK   61  A    between atoms: _158  and  _161
REMARK   62  A    between atoms: _161  and  _162
REMARK   63  A    between atoms: _168  and  _170
REMARK   64  A    between atoms: _170  and  _171
REMARK   65  A    between atoms: _170  and  _173
REMARK   66  A    between atoms: _173  and  _174
REMARK   67  A    between atoms: _180  and  _182
REMARK   68  A    between atoms: _182  and  _183
REMARK   69  A    between atoms: _182  and  _185
REMARK   70  A    between atoms: _185  and  _186
REMARK   71  A    between atoms: _186  and  _187
REMARK   72  A    between atoms: _190  and  _192
REMARK   73  A    between atoms: _192  and  _193
REMARK   74  A    between atoms: _195  and  _197
REMARK   75  A    between atoms: _197  and  _198
REMARK   76  A    between atoms: _197  and  _200
REMARK   77  A    between atoms: _200  and  _201
REMARK   78  A    between atoms: _201  and  _202
REMARK   79  A    between atoms: _202  and  _203
REMARK   80  A    between atoms: _203  and  _204
REMARK   81  A    between atoms: _208  and  _210
REMARK   82  A    between atoms: _210  and  _211
REMARK   83  A    between atoms: _210  and  _213
REMARK   84  A    between atoms: _213  and  _214
REMARK   85  A    between atoms: _214  and  _215
REMARK   86  A    between atoms: _215  and  _216
REMARK   87  A    between atoms: _225  and  _227
REMARK   88  A    between atoms: _227  and  _228
REMARK   89  A    between atoms: _227  and  _230
REMARK   90  A    between atoms: _230  and  _231
REMARK   91  A    between atoms: _231  and  _232
REMARK   92  A    between atoms: _235  and  _237
REMARK   93  A    between atoms: _237  and  _238
REMARK   94  A    between atoms: _237  and  _240
REMARK   95  A    between atoms: _240  and  _241
REMARK   96  A    between atoms: _246  and  _248
REMARK   97  A    between atoms: _248  and  _249
REMARK   98  A    between atoms: _248  and  _251
REMARK   99  A    between atoms: _251  and  _252
REMARK  100  A    between atoms: _255  and  _257
REMARK  101  A    between atoms: _257  and  _258
REMARK  102  A    between atoms: _257  and  _260
REMARK  103  A    between atoms: _260  and  _261
REMARK  104  A    between atoms: _264  and  _266
REMARK  105  A    between atoms: _266  and  _267
REMARK  106  A    between atoms: _266  and  _269
REMARK  107  A    between atoms: _269  and  _270
REMARK  108  A    between atoms: _275  and  _277
REMARK  109  A    between atoms: _277  and  _278
REMARK  110  A    between atoms: _277  and  _280
REMARK  111  A    between atoms: _280  and  _281
REMARK  112  A    between atoms: _284  and  _286
REMARK  113  A    between atoms: _286  and  _287
REMARK  114  A    between atoms: _286  and  _289
REMARK  115  A    between atoms: _289  and  _290
REMARK  116  A    between atoms: _295  and  _297
REMARK  117  A    between atoms: _297  and  _298
REMARK  118  A    between atoms: _297  and  _300
REMARK  119  A    between atoms: _300  and  _301
REMARK  120  A    between atoms: _306  and  _308
REMARK  121  A    between atoms: _308  and  _309
REMARK  122  A    between atoms: _308  and  _311
REMARK  123  A    between atoms: _311  and  _312
REMARK  124  A    between atoms: _315  and  _317
REMARK  125  A    between atoms: _317  and  _318
REMARK  126  A    between atoms: _317  and  _320
REMARK  127  A    between atoms: _323  and  _325
REMARK  128  A    between atoms: _325  and  _326
REMARK  129  A    between atoms: _325  and  _328
REMARK  130  A    between atoms: _328  and  _329
REMARK  131  A    between atoms: _333  and  _334
REMARK  132  A    between atoms: _339  and  _341
REMARK  133  A    between atoms: _341  and  _342
REMARK  134  A    between atoms: _341  and  _344
REMARK  135  A    between atoms: _344  and  _345
REMARK  136  A    between atoms: _345  and  _346
REMARK  137  A    between atoms: _349  and  _351
REMARK  138  A    between atoms: _351  and  _352
REMARK  139  A    between atoms: _355  and  _357
REMARK  140  A    between atoms: _357  and  _358
REMARK  141  A    between atoms: _357  and  _360
REMARK  142  A    between atoms: _360  and  _361
REMARK  143  A    between atoms: _364  and  _366
REMARK  144  A    between atoms: _366  and  _367
REMARK  145  A    between atoms: _366  and  _369
REMARK  146  A    between atoms: _369  and  _370
REMARK  147  A    between atoms: _370  and  _371
REMARK  148  A    between atoms: _374  and  _376
REMARK  149  A    between atoms: _376  and  _377
REMARK  150  A    between atoms: _376  and  _379
REMARK  151  A    between atoms: _379  and  _380
REMARK  152  A    between atoms: _385  and  _387
REMARK  153  A    between atoms: _387  and  _388
REMARK  154  A    between atoms: _390  and  _392
REMARK  155  A    between atoms: _392  and  _393
REMARK  156  A    between atoms: _392  and  _395
REMARK  157  A    between atoms: _398  and  _400
REMARK  158  A    between atoms: _400  and  _401
REMARK  159  A    between atoms: _404  and  _406
REMARK  160  A    between atoms: _406  and  _407
REMARK  161  A    between atoms: _406  and  _409
REMARK  162  A    between atoms: _409  and  _410
REMARK  163  A    between atoms: _415  and  _417
REMARK  164  A    between atoms: _417  and  _418
REMARK  165  A    between atoms: _417  and  _420
REMARK  166  A    between atoms: _420  and  _421
REMARK  167  A    between atoms: _421  and  _422
REMARK  168  A    between atoms: _422  and  _423
REMARK  169  A    between atoms: _423  and  _424
REMARK  170  A    between atoms: _428  and  _430
REMARK  171  A    between atoms: _430  and  _431
REMARK  172  A    between atoms: _430  and  _433
REMARK  173  A    between atoms: _433  and  _434
REMARK  174  A    between atoms: _437  and  _439
REMARK  175  A    between atoms: _439  and  _440
REMARK  176  A    between atoms: _439  and  _442
REMARK  177  A    between atoms: _442  and  _443
REMARK  178  A    between atoms: _448  and  _450
REMARK  179  A    between atoms: _450  and  _451
REMARK  180  A    between atoms: _453  and  _455
REMARK  181  A    between atoms: _455  and  _456
REMARK  182  A    between atoms: _455  and  _458
REMARK  183  A    between atoms: _458  and  _459
REMARK  184  A    between atoms: _459  and  _460
REMARK  185  A    between atoms: _460  and  _461
REMARK  186  A    between atoms: _461  and  _462
REMARK  187  A    between atoms: _466  and  _468
REMARK  188  A    between atoms: _468  and  _469
REMARK  189  A    between atoms: _468  and  _471
REMARK  190  A    between atoms: _471  and  _472
REMARK  191  A    between atoms: _472  and  _473
REMARK  192  A    between atoms: _473  and  _474
REMARK  193  A    between atoms: _483  and  _485
REMARK  194  A    between atoms: _485  and  _486
REMARK  195  A    between atoms: _485  and  _488
REMARK  196  A    between atoms: _488  and  _489
REMARK  197  A    between atoms: _494  and  _496
REMARK  198  A    between atoms: _496  and  _497
REMARK  199  A    between atoms: _496  and  _499
REMARK  200  A    between atoms: _499  and  _500
REMARK  201  A    between atoms: _505  and  _506
REMARK  202  A    between atoms: _508  and  _510
REMARK  203  A    between atoms: _510  and  _511
REMARK  204  A    between atoms: _510  and  _513
REMARK  205  A    between atoms: _513  and  _514
REMARK  206  A    between atoms: _514  and  _515
REMARK  207  A    between atoms: _515  and  _516
REMARK  208  A    between atoms: _516  and  _517
REMARK  209  A    between atoms: _521  and  _523
REMARK  210  A    between atoms: _523  and  _524
REMARK  211  A    between atoms: _523  and  _526
REMARK  212  A    between atoms: _526  and  _527
REMARK  213  A    between atoms: _529  and  _531
REMARK  214  A    between atoms: _531  and  _532
REMARK  215  A    between atoms: _531  and  _534
REMARK  216  A    between atoms: _534  and  _535
REMARK  217  A    between atoms: _538  and  _540
REMARK  218  A    between atoms: _540  and  _541
REMARK  219  A    between atoms: _540  and  _543
REMARK  220  A    between atoms: _543  and  _544
REMARK  221  A    between atoms: _544  and  _545
REMARK  222  A    between atoms: _548  and  _550
REMARK  223  A    between atoms: _550  and  _551
REMARK  224  A    between atoms: _554  and  _556
REMARK  225  A    between atoms: _556  and  _557
REMARK  226  A    between atoms: _556  and  _559
REMARK  227  A    between atoms: _559  and  _560
REMARK  228  A    between atoms: _562  and  _564
REMARK  229  A    between atoms: _564  and  _565
REMARK  230  A    between atoms: _567  and  _569
REMARK  231  A    between atoms: _569  and  _570
REMARK  232  A    between atoms: _569  and  _572
REMARK  233  A    between atoms: _572  and  _573
REMARK  234  A    between atoms: _576  and  _578
REMARK  235  A    between atoms: _578  and  _579
REMARK  236  A    between atoms: _581  and  _583
REMARK  237  A    between atoms: _583  and  _584
REMARK  238  A    between atoms: _583  and  _586
REMARK  239  A    between atoms: _586  and  _587
REMARK  240  A    between atoms: _592  and  _594
REMARK  241  A    between atoms: _594  and  _595
REMARK  242  A    between atoms: _594  and  _597
REMARK  243  A    between atoms: _597  and  _598
REMARK  244  A    between atoms: _598  and  _599
REMARK  245  A    between atoms: _606  and  _607
REMARK  246  A    between atoms: _607  and  _623
REMARK  247  A    between atoms: _608  and  _610
REMARK  248  A    between atoms: _610  and  _611
REMARK  249  A    between atoms: _611  and  _612
REMARK  250  A    between atoms: _616  and  _618
REMARK  251  A    between atoms: _618  and  _619
REMARK  252  A    between atoms: _618  and  _626
REMARK  253  A    between atoms: _619  and  _620
REMARK  254  A    between atoms: _620  and  _621
REMARK  255  A    between atoms: _621  and  _622
REMARK  256  A    between atoms: _622  and  _623
REMARK  257  A    between atoms: _628  and  _630
REMARK  258  A    between atoms: _630  and  _631
REMARK  259  A    between atoms: _630  and  _633
REMARK  260  A    between atoms: _633  and  _634
REMARK  261  A    between atoms: _637  and  _639
REMARK  262  A    between atoms: _639  and  _640
REMARK  263  A    between atoms: _642  and  _644
REMARK  264  A    between atoms: _644  and  _645
REMARK  265  A    between atoms: _648  and  _650
REMARK  266  A    between atoms: _650  and  _651
REMARK  267  A    between atoms: _650  and  _653
REMARK  268  A    between atoms: _653  and  _654
REMARK  269  A    between atoms: _659  and  _660
REMARK                            x       y       z     vdW  Elec       q    Type
REMARK                         _______ _______ _______ _____ _____    ______ ____
ROOT
ATOM      1  CA  SER A   1      31.380  29.250  17.155  0.00  0.00    +0.163 C 
ENDROOT
BRANCH   1   2
ATOM      2  N   SER A   1      29.988  29.083  16.724  0.00  0.00    -0.237 NA
ATOM      3  H   SER A   1      29.453  28.264  17.077  0.00  0.00    +0.142 HD
ENDBRANCH   1   2
BRANCH   1   4
ATOM      4  C   SER A   1      32.325  29.285  15.955  0.00  0.00    +0.227 C 
ATOM      5  O   SER A   1      32.077  28.620  14.955  0.00  0.00    -0.287 OA
ENDBRANCH   1   4
BRANCH   1   6
ATOM      6  CB  SER A   1      31.776  28.099  18.076  0.00  0.00    +0.162 C 
BRANCH   6   7
ATOM      7  OG  SER A   1      31.552  26.841  17.440  0.00  0.00    -0.380 OA
ATOM      8  H   SER A   1      30.592  26.753  17.213  0.00  0.00    +0.211 HD
ENDBRANCH   6   7
ENDBRANCH   1   6
TORSDOF 4
REMARK  Name = ../refined-set-2016/2pyi/2pyi_pocket.pdb
REMARK  269 active torsions:
REMARK  status: ('A' for Active; 'I' for Inactive)
REMARK    1  A    between atoms: _1  and  _3
REMARK    2  A    between atoms: _3  and  _4
REMARK    3  A    between atoms: _3  and  _6
REMARK    4  A    between atoms: _6  and  _7
REMARK    5  A    between atoms: _12  and  _13
REMARK    6  A    between atoms: _15  and  _17
REMARK    7  A    between atoms: _17  and  _18
REMARK    8  A    between atoms: _17  and  _20
REMARK    9  A    between atoms: _20  and  _21
REMARK   10  A    between atoms: _21  and  _22
REMARK   11  A    between atoms: _25  and  _27
REMARK   12  A    between atoms: _27  and  _28
REMARK   13  A    between atoms: _27  and  _30
REMARK   14  A    between atoms: _30  and  _31
REMARK   15  A    between atoms: _36  and  _38
REMARK   16  A    between atoms: _38  and  _39
REMARK   17  A    between atoms: _41  and  _43
REMARK   18  A    between atoms: _43  and  _44
REMARK   19  A    between atoms: _46  and  _48
REMARK   20  A    between atoms: _48  and  _49
REMARK   21  A    between atoms: _48  and  _51
REMARK   22  A    between atoms: _51  and  _52
REMARK   23  A    between atoms: _55  and  _57
REMARK   24  A    between atoms: _57  and  _58
REMARK   25  A    between atoms: _60  and  _62
REMARK   26  A    between atoms: _62  and  _63
REMARK   27  A    between atoms: _62  and  _65
REMARK   28  A    between atoms: _65  and  _66
REMARK   29  A    between atoms: _66  and  _67
REMARK   30  A    between atoms: _67  and  _68
REMARK   31  A    between atoms: _77  and  _79
REMARK   32  A    between atoms: _79  and  _80
REMARK   33  A    between atoms: _79  and  _82
REMARK   34  A    between atoms: _82  and  _83
REMARK   35  A    between atoms: _86  and  _88
REMARK   36  A    between atoms: _88  and  _89
REMARK   37  A    between atoms: _92  and  _94
REMARK   38  A    between atoms: _94  and  _95
REMARK   39  A    between atoms: _94  and  _97
REMARK   40  A    between atoms: _97  and  _98
REMARK   41  A    between atoms: _104  and  _106
REMARK   42  A    between atoms: _106  and  _107
REMARK   43  A    between atoms: _106  and  _109
REMARK   44  A    between atoms: _109  and  _110
REMARK   45  A    between atoms: _115  and  _116
REMARK   46  A    between atoms: _119  and  _120
REMARK   47  A    between atoms: _125  and  _127
REMARK   48  A    between atoms: _127  and  _128
REMARK   49  A    between atoms: _127  and  _130
REMARK   50  A    between atoms: _130  and  _131
REMARK   51  A    between atoms: _136  and  _138
REMARK   52  A    between atoms: _138  and  _139
REMARK   53  A    between atoms: _138  and  _141
REMARK   54  A    between atoms: _141  and  _142
REMARK   55  A    between atoms: _145  and  _147
REMARK   56  A    between atoms: _147  and  _148
REMARK   57  A    between atoms: _147  and  _150
REMARK   58  A    between atoms: _150  and  _151
REMARK   59  A    between atoms: _156  and  _158
REMARK   60  A    between atoms: _158  and  _159
REMARK   61  A    between atoms: _158  and  _161
REMARK   62  A    between atoms: _161  and  _162
REMARK   63  A    between atoms: _168  and  _170
REMARK   64  A    between atoms: _170  and  _171
REMARK   65  A    between atoms: _170  and  _173
REMARK   66  A    between atoms: _173  and  _174
REMARK   67  A    between atoms: _180  and  _182
REMARK   68  A    between atoms: _182  and  _183
REMARK   69  A    between atoms: _182  and  _185
REMARK   70  A    between atoms: _185  and  _186
REMARK   71  A    between atoms: _186  and  _187
REMARK   72  A    between atoms: _190  and  _192
REMARK   73  A    between atoms: _192  and  _193
REMARK   74  A    between atoms: _195  and  _197
REMARK   75  A    between atoms: _197  and  _198
REMARK   76  A    between atoms: _197  and  _200
REMARK   77  A    between atoms: _200  and  _201
REMARK   78  A    between atoms: _201  and  _202
REMARK   79  A    between atoms: _202  and  _203
REMARK   80  A    between atoms: _203  and  _204
REMARK   81  A    between atoms: _208  and  _210
REMARK   82  A    between atoms: _210  and  _211
REMARK   83  A    between atoms: _210  and  _213
REMARK   84  A    between atoms: _213  and  _214
REMARK   85  A    between atoms: _214  and  _215
REMARK   86  A    between atoms: _215  and  _216
REMARK   87  A    between atoms: _225  and  _227
REMARK   88  A    between atoms: _227  and  _228
REMARK   89  A    between atoms: _227  and  _230
REMARK   90  A    between atoms: _230  and  _231
REMARK   91  A    between atoms: _231  and  _232
REMARK   92  A    between atoms: _235  and  _237
REMARK   93  A    between atoms: _237  and  _238
REMARK   94  A    between atoms: _237  and  _240
REMARK   95  A    between atoms: _240  and  _241
REMARK   96  A    between atoms: _246  and  _248
REMARK   97  A    between atoms: _248  and  _249
REMARK   98  A    between atoms: _248  and  _251
REMARK   99  A    between atoms: _251  and  _252
REMARK  100  A    between atoms: _255  and  _257
REMARK  101  A    between atoms: _257  and  _258
REMARK  102  A    between atoms: _257  and  _260
REMARK  103  A    between atoms: _260  and  _261
REMARK  104  A    between atoms: _264  and  _266
REMARK  105  A    between atoms: _266  and  _267
REMARK  106  A    between atoms: _266  and  _269
REMARK  107  A    between atoms: _269  and  _270
REMARK  108  A    between atoms: _275  and  _277
REMARK  109  A    between atoms: _277  and  _278
REMARK  110  A    between atoms: _277  and  _280
REMARK  111  A    between atoms: _280  and  _281
REMARK  112  A    between atoms: _284  and  _286
REMARK  113  A    between atoms: _286  and  _287
REMARK  114  A    between atoms: _286  and  _289
REMARK  115  A    between atoms: _289  and  _290
REMARK  116  A    between atoms: _295  and  _297
REMARK  117  A    between atoms: _297  and  _298
REMARK  118  A    between atoms: _297  and  _300
REMARK  119  A    between atoms: _300  and  _301
REMARK  120  A    between atoms: _306  and  _308
REMARK  121  A    between atoms: _308  and  _309
REMARK  122  A    between atoms: _308  and  _311
REMARK  123  A    between atoms: _311  and  _312
REMARK  124  A    between atoms: _315  and  _317
REMARK  125  A    between atoms: _317  and  _318
REMARK  126  A    between atoms: _317  and  _320
REMARK  127  A    between atoms: _323  and  _325
REMARK  128  A    between atoms: _325  and  _326
REMARK  129  A    between atoms: _325  and  _328
REMARK  130  A    between atoms: _328  and  _329
REMARK  131  A    between atoms: _333  and  _334
REMARK  132  A    between atoms: _339  and  _341
REMARK  133  A    between atoms: _341  and  _342
REMARK  134  A    between atoms: _341  and  _344
REMARK  135  A    between atoms: _344  and  _345
REMARK  136  A    between atoms: _345  and  _346
REMARK  137  A    between atoms: _349  and  _351
REMARK  138  A    between atoms: _351  and  _352
REMARK  139  A    between atoms: _355  and  _357
REMARK  140  A    between atoms: _357  and  _358
REMARK  141  A    between atoms: _357  and  _360
REMARK  142  A    between atoms: _360  and  _361
REMARK  143  A    between atoms: _364  and  _366
REMARK  144  A    between atoms: _366  and  _367
REMARK  145  A    between atoms: _366  and  _369
REMARK  146  A    between atoms: _369  and  _370
REMARK  147  A    between atoms: _370  and  _371
REMARK  148  A    between atoms: _374  and  _376
REMARK  149  A    between atoms: _376  and  _377
REMARK  150  A    between atoms: _376  and  _379
REMARK  151  A    between atoms: _379  and  _380
REMARK  152  A    between atoms: _385  and  _387
REMARK  153  A    between atoms: _387  and  _388
REMARK  154  A    between atoms: _390  and  _392
REMARK  155  A    between atoms: _392  and  _393
REMARK  156  A    between atoms: _392  and  _395
REMARK  157  A    between atoms: _398  and  _400
REMARK  158  A    between atoms: _400  and  _401
REMARK  159  A    between atoms: _404  and  _406
REMARK  160  A    between atoms: _406  and  _407
REMARK  161  A    between atoms: _406  and  _409
REMARK  162  A    between atoms: _409  and  _410
REMARK  163  A    between atoms: _415  and  _417
REMARK  164  A    between atoms: _417  and  _418
REMARK  165  A    between atoms: _417  and  _420
REMARK  166  A    between atoms: _420  and  _421
REMARK  167  A    between atoms: _421  and  _422
REMARK  168  A    between atoms: _422  and  _423
REMARK  169  A    between atoms: _423  and  _424
REMARK  170  A    between atoms: _428  and  _430
REMARK  171  A    between atoms: _430  and  _431
REMARK  172  A    between atoms: _430  and  _433
REMARK  173  A    between atoms: _433  and  _434
REMARK  174  A    between atoms: _437  and  _439
REMARK  175  A    between atoms: _439  and  _440
REMARK  176  A    between atoms: _439  and  _442
REMARK  177  A    between atoms: _442  and  _443
REMARK  178  A    between atoms: _448  and  _450
REMARK  179  A    between atoms: _450  and  _451
REMARK  180  A    between atoms: _453  and  _455
REMARK  181  A    between atoms: _455  and  _456
REMARK  182  A    between atoms: _455  and  _458
REMARK  183  A    between atoms: _458  and  _459
REMARK  184  A    between atoms: _459  and  _460
REMARK  185  A    between atoms: _460  and  _461
REMARK  186  A    between atoms: _461  and  _462
REMARK  187  A    between atoms: _466  and  _468
REMARK  188  A    between atoms: _468  and  _469
REMARK  189  A    between atoms: _468  and  _471
REMARK  190  A    between atoms: _471  and  _472
REMARK  191  A    between atoms: _472  and  _473
REMARK  192  A    between atoms: _473  and  _474
REMARK  193  A    between atoms: _483  and  _485
REMARK  194  A    between atoms: _485  and  _486
REMARK  195  A    between atoms: _485  and  _488
REMARK  196  A    between atoms: _488  and  _489
REMARK  197  A    between atoms: _494  and  _496
REMARK  198  A    between atoms: _496  and  _497
REMARK  199  A    between atoms: _496  and  _499
REMARK  200  A    between atoms: _499  and  _500
REMARK  201  A    between atoms: _505  and  _506
REMARK  202  A    between atoms: _508  and  _510
REMARK  203  A    between atoms: _510  and  _511
REMARK  204  A    between atoms: _510  and  _513
REMARK  205  A    between atoms: _513  and  _514
REMARK  206  A    between atoms: _514  and  _515
REMARK  207  A    between atoms: _515  and  _516
REMARK  208  A    between atoms: _516  and  _517
REMARK  209  A    between atoms: _521  and  _523
REMARK  210  A    between atoms: _523  and  _524
REMARK  211  A    between atoms: _523  and  _526
REMARK  212  A    between atoms: _526  and  _527
REMARK  213  A    between atoms: _529  and  _531
REMARK  214  A    between atoms: _531  and  _532
REMARK  215  A    between atoms: _531  and  _534
REMARK  216  A    between atoms: _534  and  _535
REMARK  217  A    between atoms: _538  and  _540
REMARK  218  A    between atoms: _540  and  _541
REMARK  219  A    between atoms: _540  and  _543
REMARK  220  A    between atoms: _543  and  _544
REMARK  221  A    between atoms: _544  and  _545
REMARK  222  A    between atoms: _548  and  _550
REMARK  223  A    between atoms: _550  and  _551
REMARK  224  A    between atoms: _554  and  _556
REMARK  225  A    between atoms: _556  and  _557
REMARK  226  A    between atoms: _556  and  _559
REMARK  227  A    between atoms: _559  and  _560
REMARK  228  A    between atoms: _562  and  _564
REMARK  229  A    between atoms: _564  and  _565
REMARK  230  A    between atoms: _567  and  _569
REMARK  231  A    between atoms: _569  and  _570
REMARK  232  A    between atoms: _569  and  _572
REMARK  233  A    between atoms: _572  and  _573
REMARK  234  A    between atoms: _576  and  _578
REMARK  235  A    between atoms: _578  and  _579
REMARK  236  A    between atoms: _581  and  _583
REMARK  237  A    between atoms: _583  and  _584
REMARK  238  A    between atoms: _583  and  _586
REMARK  239  A    between atoms: _586  and  _587
REMARK  240  A    between atoms: _592  and  _594
REMARK  241  A    between atoms: _594  and  _595
REMARK  242  A    between atoms: _594  and  _597
REMARK  243  A    between atoms: _597  and  _598
REMARK  244  A    between atoms: _598  and  _599
REMARK  245  A    between atoms: _606  and  _607
REMARK  246  A    between atoms: _607  and  _623
REMARK  247  A    between atoms: _608  and  _610
REMARK  248  A    between atoms: _610  and  _611
REMARK  249  A    between atoms: _611  and  _612
REMARK  250  A    between atoms: _616  and  _618
REMARK  251  A    between atoms: _618  and  _619
REMARK  252  A    between atoms: _618  and  _626
REMARK  253  A    between atoms: _619  and  _620
REMARK  254  A    between atoms: _620  and  _621
REMARK  255  A    between atoms: _621  and  _622
REMARK  256  A    between atoms: _622  and  _623
REMARK  257  A    between atoms: _628  and  _630
REMARK  258  A    between atoms: _630  and  _631
REMARK  259  A    between atoms: _630  and  _633
REMARK  260  A    between atoms: _633  and  _634
REMARK  261  A    between atoms: _637  and  _639
REMARK  262  A    between atoms: _639  and  _640
REMARK  263  A    between atoms: _642  and  _644
REMARK  264  A    between atoms: _644  and  _645
REMARK  265  A    between atoms: _648  and  _650
REMARK  266  A    between atoms: _650  and  _651
REMARK  267  A    between atoms: _650  and  _653
REMARK  268  A    between atoms: _653  and  _654
REMARK  269  A    between atoms: _659  and  _660
REMARK                            x       y       z     vdW  Elec       q    Type
REMARK                         _______ _______ _______ _____ _____    ______ ____
ROOT
ATOM      1  CA  GLY A   7      23.418  22.268  23.530  0.00  0.00    +0.176 C 
ENDROOT
BRANCH   1   2
ATOM      2  C   GLY A   7      22.950  21.961  22.119  0.00  0.00    +0.243 C 
ATOM      3  O   GLY A   7      21.764  21.710  21.886  0.00  0.00    -0.273 OA
ATOM      4  N   ASN A   8      23.897  21.951  21.182  0.00  0.00    -0.297 N 
ATOM      5  H   ASN A   8      24.859  22.255  21.434  0.00  0.00    +0.150 HD
BRANCH   4   6
ATOM      6  CA  ASN A   8      23.622  21.524  19.805  0.00  0.00    +0.158 C 
BRANCH   6   7
ATOM      7  C   ASN A   8      22.814  20.225  19.714  0.00  0.00    +0.241 C 
ATOM      8  N   MET A   9      23.229  19.225  20.489  0.00  0.00    -0.297 N 
ATOM      9  H   MET A   9      24.046  19.381  21.113  0.00  0.00    +0.150 HD
ATOM     10  O   ASN A   8      21.821  20.149  18.981  0.00  0.00    -0.273 OA
BRANCH   8  11
ATOM     11  CA  MET A   9      22.579  17.915  20.495  0.00  0.00    +0.149 C 
BRANCH  11  12
ATOM     12  C   MET A   9      21.171  17.972  21.067  0.00  0.00    +0.241 C 
ATOM     13  N   UNK A  10      20.996  18.777  22.118  0.00  0.00    -0.298 N 
ATOM     14  H   UNK A  10      21.816  19.298  22.490  0.00  0.00    +0.150 HD
ATOM     15  O   MET A   9      20.269  17.288  20.568  0.00  0.00    -0.273 OA
BRANCH  13  16
ATOM     16  C   UNK A  10      19.698  18.955  22.767  0.00  0.00    +0.137 C 
BRANCH  16  17
ATOM     17  C   UNK A  10      18.670  19.519  21.785  0.00  0.00    +0.227 C 
ATOM     18  O   UNK A  10      17.530  19.050  21.730  0.00  0.00    -0.286 OA
ENDBRANCH  16  17
BRANCH  16  19
ATOM     19  C   UNK A  10      19.823  19.874  23.994  0.00  0.00    +0.028 C 
BRANCH  19  20
ATOM     20  C   UNK A  10      20.739  19.362  25.103  0.00  0.00    -0.000 C 
BRANCH  20  21
ATOM     21  C   UNK A  10      20.981  20.443  26.152  0.00  0.00    -0.023 C 
BRANCH  21  22
ATOM     22  C   UNK A  10      22.231  20.176  26.970  0.00  0.00    -0.081 C 
BRANCH  22  23
ATOM     23  N   UNK A  10      22.491  21.338  27.888  0.00  0.00    +0.387 N 
ATOM     24  H   UNK A  10      21.733  22.041  27.772  0.00  0.00    -0.084 HD
ATOM     25  H   UNK A  10      22.501  21.001  28.872  0.00  0.00    -0.084 HD
BRANCH  23  26
ATOM     26  C   UNK A  10      23.667  21.909  27.607  0.00  0.00    -0.051 C 
BRANCH  26  27
ATOM     27  C   UNK A  10      23.895  23.161  28.429  0.00  0.00    -0.007 C 
ATOM     28  C   UNK A  10      25.030  23.952  28.201  0.00  0.00    +0.023 C 
ATOM     29  C   UNK A  10      25.246  25.116  28.936  0.00  0.00    +0.091 C 
ATOM     30  N   UNK A  10      24.364  25.483  29.925  0.00  0.00    -0.263 NA
ATOM     31  C   UNK A  10      23.249  24.707  30.183  0.00  0.00    +0.164 C 
ATOM     32  C   UNK A  10      22.315  25.145  31.270  0.00  0.00    +0.035 C 
ATOM     33  C   UNK A  10      23.006  23.543  29.446  0.00  0.00    +0.189 C 
ATOM     34  O   UNK A  10      21.999  22.868  29.694  0.00  0.00    -0.290 OA
BRANCH  28  35
ATOM     35  C   UNK A  10      26.018  23.640  27.119  0.00  0.00    +0.181 C 
BRANCH  35  36
ATOM     36  O   UNK A  10      25.722  24.389  25.915  0.00  0.00    -0.265 OA
BRANCH  36  37
ATOM     37  P   UNK A  10      26.729  24.639  24.686  0.00  0.00    +0.533 P 
ATOM     38  O   UNK A  10      27.098  23.303  24.190  0.00  0.00    -0.115 OA
ATOM     39  O   UNK A  10      27.818  25.458  25.239  0.00  0.00    -0.115 OA
ATOM     40  O   UNK A  10      25.835  25.404  23.780  0.00  0.00    -0.222 OA
ENDBRANCH  36  37
ENDBRANCH  35  36
ENDBRANCH  28  35
ENDBRANCH  26  27
ENDBRANCH  23  26
ENDBRANCH  22  23
ENDBRANCH  21  22
ENDBRANCH  20  21
ENDBRANCH  19  20
ENDBRANCH  16  19
ENDBRANCH  13  16
ENDBRANCH  11  12
BRANCH  11  41
ATOM     41  CB  MET A   9      23.415  16.905  21.274  0.00  0.00    +0.041 C 
BRANCH  41  42
ATOM     42  CG  MET A   9      24.833  16.774  20.759  0.00  0.00    +0.060 C 
BRANCH  42  43
ATOM     43  SD  MET A   9      25.893  15.842  21.864  0.00  0.00    -0.139 S 
ATOM     44  CE  MET A   9      27.481  16.162  21.111  0.00  0.00    +0.069 C 
ENDBRANCH  42  43
ENDBRANCH  41  42
ENDBRANCH  11  41
ENDBRANCH   8  11
ENDBRANCH   6   7
BRANCH   6  45
ATOM     45  CB  ASN A   8      24.913  21.444  18.970  0.00  0.00    +0.114 C 
BRANCH  45  46
ATOM     46  CG  ASN A   8      26.028  20.643  19.639  0.00  0.00    +0.222 C 
ATOM     47  OD1 ASN A   8      25.841  20.020  20.685  0.00  0.00    -0.275 OA
ATOM     48  ND2 ASN A   8      27.206  20.657  19.019  0.00  0.00    -0.329 N 
ATOM     49 HD21 ASN A   8      28.009  20.129  19.416  0.00  0.00    +0.145 HD
ATOM     50 HD22 ASN A   8      27.323  21.196  18.137  0.00  0.00    +0.145 HD
ENDBRANCH  45  46
ENDBRANCH   6  45
ENDBRANCH   4   6
ENDBRANCH   1   2
BRANCH   1  52
ATOM     51  C   THR A   6      24.766  20.234  23.679  0.00  0.00    +0.243 C 
ATOM     52  N   GLY A   7      24.670  21.561  23.787  0.00  0.00    -0.295 N 
ATOM     53  H   GLY A   7      25.511  22.107  24.062  0.00  0.00    +0.150 HD
ATOM     54  O   THR A   6      23.797  19.499  23.469  0.00  0.00    -0.273 OA
BRANCH  51  55
ATOM     55  CA  THR A   6      26.158  19.642  23.829  0.00  0.00    +0.176 C 
BRANCH  55  57
ATOM     56  C   GLY A   5      28.226  20.315  22.710  0.00  0.00    +0.243 C 
ATOM     57  N   THR A   6      27.179  20.629  23.467  0.00  0.00    -0.295 N 
ATOM     58  H   THR A   6      27.082  21.605  23.813  0.00  0.00    +0.150 HD
ATOM     59  O   GLY A   5      28.497  19.149  22.380  0.00  0.00    -0.273 OA
BRANCH  56  60
ATOM     60  CA  GLY A   5      29.115  21.472  22.287  0.00  0.00    +0.176 C 
BRANCH  60  62
ATOM     61  C   SER A   4      30.849  20.399  20.970  0.00  0.00    +0.243 C 
ATOM     62  N   GLY A   5      30.465  20.980  22.102  0.00  0.00    -0.295 N 
ATOM     63  H   GLY A   5      31.152  21.084  22.876  0.00  0.00    +0.150 HD
ATOM     64  O   SER A   4      30.197  20.460  19.924  0.00  0.00    -0.273 OA
BRANCH  61  65
ATOM     65  CA  SER A   4      32.163  19.634  21.029  0.00  0.00    +0.178 C 
BRANCH  65  67
ATOM     66  C   ALA A   3      34.500  20.314  21.004  0.00  0.00    +0.241 C 
ATOM     67  N   SER A   4      33.266  20.481  21.474  0.00  0.00    -0.295 N 
ATOM     68  H   SER A   4      33.084  21.230  22.172  0.00  0.00    +0.150 HD
ATOM     69  O   ALA A   3      34.808  19.390  20.245  0.00  0.00    -0.273 OA
BRANCH  66  70
ATOM     70  CA  ALA A   3      35.543  21.348  21.439  0.00  0.00    +0.149 C 
ATOM     71  CB  ALA A   3      36.111  21.011  22.815  0.00  0.00    +0.031 C 
BRANCH  70  73
ATOM     72  C   GLU A   2      34.474  23.235  20.308  0.00  0.00    +0.241 C 
ATOM     73  N   ALA A   3      35.011  22.716  21.414  0.00  0.00    -0.297 N 
ATOM     74  H   ALA A   3      35.054  23.294  22.278  0.00  0.00    +0.150 HD
ATOM     75  O   GLU A   2      34.303  22.582  19.279  0.00  0.00    -0.273 OA
BRANCH  72  76
ATOM     76  CA  GLU A   2      34.076  24.711  20.357  0.00  0.00    +0.149 C 
BRANCH  76  79
ATOM     77  C   THR A   1      36.130  25.987  19.973  0.00  0.00    +0.241 C 
ATOM     78  O   THR A   1      36.478  25.871  21.149  0.00  0.00    -0.274 OA
ATOM     79  N   GLU A   2      34.984  25.486  19.509  0.00  0.00    -0.297 N 
ATOM     80  H   GLU A   2      34.728  25.651  18.515  0.00  0.00    +0.150 HD
BRANCH  77  81
ATOM     81  CA  THR A   1      37.027  26.743  18.977  0.00  0.00    +0.172 C 
BRANCH  81  82
ATOM     82  N   THR A   1      37.074  26.190  17.614  0.00  0.00    -0.236 NA
ATOM     83  H   THR A   1      36.277  26.363  16.969  0.00  0.00    +0.142 HD
ENDBRANCH  81  82
BRANCH  81  84
ATOM     84  CB  THR A   1      36.645  28.243  18.987  0.00  0.00    +0.135 C 
ATOM     85  CG2 THR A   1      37.642  29.083  18.172  0.00  0.00    +0.034 C 
BRANCH  84  86
ATOM     86  OG1 THR A   1      35.323  28.411  18.463  0.00  0.00    -0.383 OA
ATOM     87  HG1 THR A   1      35.292  28.071  17.534  0.00  0.00    +0.210 HD
ENDBRANCH  84  86
ENDBRANCH  81  84
ENDBRANCH  77  81
ENDBRANCH  76  79
BRANCH  76  88
ATOM     88  CB  GLU A   2      32.622  24.896  19.892  0.00  0.00    +0.041 C 
BRANCH  88  89
ATOM     89  CG  GLU A   2      31.553  24.401  20.866  0.00  0.00    +0.116 C 
BRANCH  89  90
ATOM     90  CD  GLU A   2      31.396  25.299  22.077  0.00  0.00    +0.365 C 
ATOM     91  OE2 GLU A   2      32.059  25.026  23.100  0.00  0.00    -0.246 OA
ATOM     92  OE1 GLU A   2      30.621  26.280  22.005  0.00  0.00    -0.246 OA
ENDBRANCH  89  90
ENDBRANCH  88  89
ENDBRANCH  76  88
ENDBRANCH  72  76
ENDBRANCH  70  73
ENDBRANCH  66  70
ENDBRANCH  65  67
BRANCH  65  93
ATOM     93  CB  SER A   4      32.016  18.424  21.957  0.00  0.00    +0.166 C 
BRANCH  93  94
ATOM     94  OG  SER A   4      30.796  17.738  21.718  0.00  0.00    -0.380 OA
ATOM     95  H   SER A   4      30.036  18.353  21.877  0.00  0.00    +0.211 HD
ENDBRANCH  93  94
ENDBRANCH  65  93
ENDBRANCH  61  65
ENDBRANCH  60  62
ENDBRANCH  56  60
ENDBRANCH  55  57
BRANCH  55  96
ATOM     96  CB  THR A   6      26.316  19.109  25.266  0.00  0.00    +0.137 C 
ATOM     97  CG2 THR A   6      27.515  18.163  25.376  0.00  0.00    +0.034 C 
BRANCH  96  98
ATOM     98  OG1 THR A   6      26.472  20.207  26.168  0.00  0.00    -0.382 OA
ATOM     99  HG1 THR A   6      26.573  19.863  27.091  0.00  0.00    +0.210 HD
ENDBRANCH  96  98
ENDBRANCH  55  96
ENDBRANCH  51  55
ENDBRANCH   1  52
TORSDOF 44
REMARK  Name = ../refined-set-2016/2pyi/2pyi_pocket.pdb
REMARK  269 active torsions:
REMARK  status: ('A' for Active; 'I' for Inactive)
REMARK    1  A    between atoms: _1  and  _3
REMARK    2  A    between atoms: _3  and  _4
REMARK    3  A    between atoms: _3  and  _6
REMARK    4  A    between atoms: _6  and  _7
REMARK    5  A    between atoms: _12  and  _13
REMARK    6  A    between atoms: _15  and  _17
REMARK    7  A    between atoms: _17  and  _18
REMARK    8  A    between atoms: _17  and  _20
REMARK    9  A    between atoms: _20  and  _21
REMARK   10  A    between atoms: _21  and  _22
REMARK   11  A    between atoms: _25  and  _27
REMARK   12  A    between atoms: _27  and  _28
REMARK   13  A    between atoms: _27  and  _30
REMARK   14  A    between atoms: _30  and  _31
REMARK   15  A    between atoms: _36  and  _38
REMARK   16  A    between atoms: _38  and  _39
REMARK   17  A    between atoms: _41  and  _43
REMARK   18  A    between atoms: _43  and  _44
REMARK   19  A    between atoms: _46  and  _48
REMARK   20  A    between atoms: _48  and  _49
REMARK   21  A    between atoms: _48  and  _51
REMARK   22  A    between atoms: _51  and  _52
REMARK   23  A    between atoms: _55  and  _57
REMARK   24  A    between atoms: _57  and  _58
REMARK   25  A    between atoms: _60  and  _62
REMARK   26  A    between atoms: _62  and  _63
REMARK   27  A    between atoms: _62  and  _65
REMARK   28  A    between atoms: _65  and  _66
REMARK   29  A    between atoms: _66  and  _67
REMARK   30  A    between atoms: _67  and  _68
REMARK   31  A    between atoms: _77  and  _79
REMARK   32  A    between atoms: _79  and  _80
REMARK   33  A    between atoms: _79  and  _82
REMARK   34  A    between atoms: _82  and  _83
REMARK   35  A    between atoms: _86  and  _88
REMARK   36  A    between atoms: _88  and  _89
REMARK   37  A    between atoms: _92  and  _94
REMARK   38  A    between atoms: _94  and  _95
REMARK   39  A    between atoms: _94  and  _97
REMARK   40  A    between atoms: _97  and  _98
REMARK   41  A    between atoms: _104  and  _106
REMARK   42  A    between atoms: _106  and  _107
REMARK   43  A    between atoms: _106  and  _109
REMARK   44  A    between atoms: _109  and  _110
REMARK   45  A    between atoms: _115  and  _116
REMARK   46  A    between atoms: _119  and  _120
REMARK   47  A    between atoms: _125  and  _127
REMARK   48  A    between atoms: _127  and  _128
REMARK   49  A    between atoms: _127  and  _130
REMARK   50  A    between atoms: _130  and  _131
REMARK   51  A    between atoms: _136  and  _138
REMARK   52  A    between atoms: _138  and  _139
REMARK   53  A    between atoms: _138  and  _141
REMARK   54  A    between atoms: _141  and  _142
REMARK   55  A    between atoms: _145  and  _147
REMARK   56  A    between atoms: _147  and  _148
REMARK   57  A    between atoms: _147  and  _150
REMARK   58  A    between atoms: _150  and  _151
REMARK   59  A    between atoms: _156  and  _158
REMARK   60  A    between atoms: _158  and  _159
REMARK   61  A    between atoms: _158  and  _161
REMARK   62  A    between atoms: _161  and  _162
REMARK   63  A    between atoms: _168  and  _170
REMARK   64  A    between atoms: _170  and  _171
REMARK   65  A    between atoms: _170  and  _173
REMARK   66  A    between atoms: _173  and  _174
REMARK   67  A    between atoms: _180  and  _182
REMARK   68  A    between atoms: _182  and  _183
REMARK   69  A    between atoms: _182  and  _185
REMARK   70  A    between atoms: _185  and  _186
REMARK   71  A    between atoms: _186  and  _187
REMARK   72  A    between atoms: _190  and  _192
REMARK   73  A    between atoms: _192  and  _193
REMARK   74  A    between atoms: _195  and  _197
REMARK   75  A    between atoms: _197  and  _198
REMARK   76  A    between atoms: _197  and  _200
REMARK   77  A    between atoms: _200  and  _201
REMARK   78  A    between atoms: _201  and  _202
REMARK   79  A    between atoms: _202  and  _203
REMARK   80  A    between atoms: _203  and  _204
REMARK   81  A    between atoms: _208  and  _210
REMARK   82  A    between atoms: _210  and  _211
REMARK   83  A    between atoms: _210  and  _213
REMARK   84  A    between atoms: _213  and  _214
REMARK   85  A    between atoms: _214  and  _215
REMARK   86  A    between atoms: _215  and  _216
REMARK   87  A    between atoms: _225  and  _227
REMARK   88  A    between atoms: _227  and  _228
REMARK   89  A    between atoms: _227  and  _230
REMARK   90  A    between atoms: _230  and  _231
REMARK   91  A    between atoms: _231  and  _232
REMARK   92  A    between atoms: _235  and  _237
REMARK   93  A    between atoms: _237  and  _238
REMARK   94  A    between atoms: _237  and  _240
REMARK   95  A    between atoms: _240  and  _241
REMARK   96  A    between atoms: _246  and  _248
REMARK   97  A    between atoms: _248  and  _249
REMARK   98  A    between atoms: _248  and  _251
REMARK   99  A    between atoms: _251  and  _252
REMARK  100  A    between atoms: _255  and  _257
REMARK  101  A    between atoms: _257  and  _258
REMARK  102  A    between atoms: _257  and  _260
REMARK  103  A    between atoms: _260  and  _261
REMARK  104  A    between atoms: _264  and  _266
REMARK  105  A    between atoms: _266  and  _267
REMARK  106  A    between atoms: _266  and  _269
REMARK  107  A    between atoms: _269  and  _270
REMARK  108  A    between atoms: _275  and  _277
REMARK  109  A    between atoms: _277  and  _278
REMARK  110  A    between atoms: _277  and  _280
REMARK  111  A    between atoms: _280  and  _281
REMARK  112  A    between atoms: _284  and  _286
REMARK  113  A    between atoms: _286  and  _287
REMARK  114  A    between atoms: _286  and  _289
REMARK  115  A    between atoms: _289  and  _290
REMARK  116  A    between atoms: _295  and  _297
REMARK  117  A    between atoms: _297  and  _298
REMARK  118  A    between atoms: _297  and  _300
REMARK  119  A    between atoms: _300  and  _301
REMARK  120  A    between atoms: _306  and  _308
REMARK  121  A    between atoms: _308  and  _309
REMARK  122  A    between atoms: _308  and  _311
REMARK  123  A    between atoms: _311  and  _312
REMARK  124  A    between atoms: _315  and  _317
REMARK  125  A    between atoms: _317  and  _318
REMARK  126  A    between atoms: _317  and  _320
REMARK  127  A    between atoms: _323  and  _325
REMARK  128  A    between atoms: _325  and  _326
REMARK  129  A    between atoms: _325  and  _328
REMARK  130  A    between atoms: _328  and  _329
REMARK  131  A    between atoms: _333  and  _334
REMARK  132  A    between atoms: _339  and  _341
REMARK  133  A    between atoms: _341  and  _342
REMARK  134  A    between atoms: _341  and  _344
REMARK  135  A    between atoms: _344  and  _345
REMARK  136  A    between atoms: _345  and  _346
REMARK  137  A    between atoms: _349  and  _351
REMARK  138  A    between atoms: _351  and  _352
REMARK  139  A    between atoms: _355  and  _357
REMARK  140  A    between atoms: _357  and  _358
REMARK  141  A    between atoms: _357  and  _360
REMARK  142  A    between atoms: _360  and  _361
REMARK  143  A    between atoms: _364  and  _366
REMARK  144  A    between atoms: _366  and  _367
REMARK  145  A    between atoms: _366  and  _369
REMARK  146  A    between atoms: _369  and  _370
REMARK  147  A    between atoms: _370  and  _371
REMARK  148  A    between atoms: _374  and  _376
REMARK  149  A    between atoms: _376  and  _377
REMARK  150  A    between atoms: _376  and  _379
REMARK  151  A    between atoms: _379  and  _380
REMARK  152  A    between atoms: _385  and  _387
REMARK  153  A    between atoms: _387  and  _388
REMARK  154  A    between atoms: _390  and  _392
REMARK  155  A    between atoms: _392  and  _393
REMARK  156  A    between atoms: _392  and  _395
REMARK  157  A    between atoms: _398  and  _400
REMARK  158  A    between atoms: _400  and  _401
REMARK  159  A    between atoms: _404  and  _406
REMARK  160  A    between atoms: _406  and  _407
REMARK  161  A    between atoms: _406  and  _409
REMARK  162  A    between atoms: _409  and  _410
REMARK  163  A    between atoms: _415  and  _417
REMARK  164  A    between atoms: _417  and  _418
REMARK  165  A    between atoms: _417  and  _420
REMARK  166  A    between atoms: _420  and  _421
REMARK  167  A    between atoms: _421  and  _422
REMARK  168  A    between atoms: _422  and  _423
REMARK  169  A    between atoms: _423  and  _424
REMARK  170  A    between atoms: _428  and  _430
REMARK  171  A    between atoms: _430  and  _431
REMARK  172  A    between atoms: _430  and  _433
REMARK  173  A    between atoms: _433  and  _434
REMARK  174  A    between atoms: _437  and  _439
REMARK  175  A    between atoms: _439  and  _440
REMARK  176  A    between atoms: _439  and  _442
REMARK  177  A    between atoms: _442  and  _443
REMARK  178  A    between atoms: _448  and  _450
REMARK  179  A    between atoms: _450  and  _451
REMARK  180  A    between atoms: _453  and  _455
REMARK  181  A    between atoms: _455  and  _456
REMARK  182  A    between atoms: _455  and  _458
REMARK  183  A    between atoms: _458  and  _459
REMARK  184  A    between atoms: _459  and  _460
REMARK  185  A    between atoms: _460  and  _461
REMARK  186  A    between atoms: _461  and  _462
REMARK  187  A    between atoms: _466  and  _468
REMARK  188  A    between atoms: _468  and  _469
REMARK  189  A    between atoms: _468  and  _471
REMARK  190  A    between atoms: _471  and  _472
REMARK  191  A    between atoms: _472  and  _473
REMARK  192  A    between atoms: _473  and  _474
REMARK  193  A    between atoms: _483  and  _485
REMARK  194  A    between atoms: _485  and  _486
REMARK  195  A    between atoms: _485  and  _488
REMARK  196  A    between atoms: _488  and  _489
REMARK  197  A    between atoms: _494  and  _496
REMARK  198  A    between atoms: _496  and  _497
REMARK  199  A    between atoms: _496  and  _499
REMARK  200  A    between atoms: _499  and  _500
REMARK  201  A    between atoms: _505  and  _506
REMARK  202  A    between atoms: _508  and  _510
REMARK  203  A    between atoms: _510  and  _511
REMARK  204  A    between atoms: _510  and  _513
REMARK  205  A    between atoms: _513  and  _514
REMARK  206  A    between atoms: _514  and  _515
REMARK  207  A    between atoms: _515  and  _516
REMARK  208  A    between atoms: _516  and  _517
REMARK  209  A    between atoms: _521  and  _523
REMARK  210  A    between atoms: _523  and  _524
REMARK  211  A    between atoms: _523  and  _526
REMARK  212  A    between atoms: _526  and  _527
REMARK  213  A    between atoms: _529  and  _531
REMARK  214  A    between atoms: _531  and  _532
REMARK  215  A    between atoms: _531  and  _534
REMARK  216  A    between atoms: _534  and  _535
REMARK  217  A    between atoms: _538  and  _540
REMARK  218  A    between atoms: _540  and  _541
REMARK  219  A    between atoms: _540  and  _543
REMARK  220  A    between atoms: _543  and  _544
REMARK  221  A    between atoms: _544  and  _545
REMARK  222  A    between atoms: _548  and  _550
REMARK  223  A    between atoms: _550  and  _551
REMARK  224  A    between atoms: _554  and  _556
REMARK  225  A    between atoms: _556  and  _557
REMARK  226  A    between atoms: _556  and  _559
REMARK  227  A    between atoms: _559  and  _560
REMARK  228  A    between atoms: _562  and  _564
REMARK  229  A    between atoms: _564  and  _565
REMARK  230  A    between atoms: _567  and  _569
REMARK  231  A    between atoms: _569  and  _570
REMARK  232  A    between atoms: _569  and  _572
REMARK  233  A    between atoms: _572  and  _573
REMARK  234  A    between atoms: _576  and  _578
REMARK  235  A    between atoms: _578  and  _579
REMARK  236  A    between atoms: _581  and  _583
REMARK  237  A    between atoms: _583  and  _584
REMARK  238  A    between atoms: _583  and  _586
REMARK  239  A    between atoms: _586  and  _587
REMARK  240  A    between atoms: _592  and  _594
REMARK  241  A    between atoms: _594  and  _595
REMARK  242  A    between atoms: _594  and  _597
REMARK  243  A    between atoms: _597  and  _598
REMARK  244  A    between atoms: _598  and  _599
REMARK  245  A    between atoms: _606  and  _607
REMARK  246  A    between atoms: _607  and  _623
REMARK  247  A    between atoms: _608  and  _610
REMARK  248  A    between atoms: _610  and  _611
REMARK  249  A    between atoms: _611  and  _612
REMARK  250  A    between atoms: _616  and  _618
REMARK  251  A    between atoms: _618  and  _619
REMARK  252  A    between atoms: _618  and  _626
REMARK  253  A    between atoms: _619  and  _620
REMARK  254  A    between atoms: _620  and  _621
REMARK  255  A    between atoms: _621  and  _622
REMARK  256  A    between atoms: _622  and  _623
REMARK  257  A    between atoms: _628  and  _630
REMARK  258  A    between atoms: _630  and  _631
REMARK  259  A    between atoms: _630  and  _633
REMARK  260  A    between atoms: _633  and  _634
REMARK  261  A    between atoms: _637  and  _639
REMARK  262  A    between atoms: _639  and  _640
REMARK  263  A    between atoms: _642  and  _644
REMARK  264  A    between atoms: _644  and  _645
REMARK  265  A    between atoms: _648  and  _650
REMARK  266  A    between atoms: _650  and  _651
REMARK  267  A    between atoms: _650  and  _653
REMARK  268  A    between atoms: _653  and  _654
REMARK  269  A    between atoms: _659  and  _660
REMARK                            x       y       z     vdW  Elec       q    Type
REMARK                         _______ _______ _______ _____ _____    ______ ____
ROOT
ATOM      1  C   ASP A   1      32.401  21.952  15.560  0.00  0.00    +0.239 C 
ATOM      2  N   GLY A   2      33.329  21.382  16.324  0.00  0.00    -0.296 N 
ATOM      3  H   GLY A   2      34.328  21.627  16.169  0.00  0.00    +0.150 HD
ATOM      4  O   ASP A   1      31.197  21.699  15.650  0.00  0.00    -0.274 OA
ENDROOT
BRANCH   1   5
ATOM      5  CA  ASP A   1      32.902  22.962  14.542  0.00  0.00    +0.156 C 
BRANCH   5   6
ATOM      6  N   ASP A   1      32.115  22.892  13.315  0.00  0.00    -0.238 NA
ATOM      7  H   ASP A   1      31.083  22.788  13.388  0.00  0.00    +0.142 HD
ENDBRANCH   5   6
BRANCH   5   8
ATOM      8  CB  ASP A   1      32.837  24.373  15.144  0.00  0.00    +0.140 C 
BRANCH   8   9
ATOM      9  CG  ASP A   1      33.960  24.639  16.137  0.00  0.00    +0.367 C 
ATOM     10  OD2 ASP A   1      33.828  25.573  16.954  0.00  0.00    -0.246 OA
ATOM     11  OD1 ASP A   1      34.980  23.918  16.094  0.00  0.00    -0.246 OA
ENDBRANCH   8   9
ENDBRANCH   5   8
ENDBRANCH   1   5
BRANCH   2  12
ATOM     12  CA  GLY A   2      32.993  20.426  17.370  0.00  0.00    +0.176 C 
BRANCH  12  13
ATOM     13  C   GLY A   2      32.130  19.288  16.865  0.00  0.00    +0.243 C 
ATOM     14  N   ALA A   3      31.086  18.974  17.620  0.00  0.00    -0.298 N 
ATOM     15  H   ALA A   3      30.907  19.514  18.491  0.00  0.00    +0.150 HD
ATOM     16  O   GLY A   2      32.395  18.714  15.803  0.00  0.00    -0.273 OA
BRANCH  14  17
ATOM     17  CA  ALA A   3      30.183  17.888  17.255  0.00  0.00    +0.137 C 
ATOM     18  CB  ALA A   3      29.478  17.336  18.489  0.00  0.00    +0.030 C 
BRANCH  17  19
ATOM     19  C   ALA A   3      29.169  18.274  16.170  0.00  0.00    +0.227 C 
ATOM     20  O   ALA A   3      28.470  17.398  15.646  0.00  0.00    -0.286 OA
ENDBRANCH  17  19
ENDBRANCH  14  17
ENDBRANCH  12  13
ENDBRANCH   2  12
TORSDOF 8
REMARK  Name = ../refined-set-2016/2pyi/2pyi_pocket.pdb
REMARK  269 active torsions:
REMARK  status: ('A' for Active; 'I' for Inactive)
REMARK    1  A    between atoms: _1  and  _3
REMARK    2  A    between atoms: _3  and  _4
REMARK    3  A    between atoms: _3  and  _6
REMARK    4  A    between atoms: _6  and  _7
REMARK    5  A    between atoms: _12  and  _13
REMARK    6  A    between atoms: _15  and  _17
REMARK    7  A    between atoms: _17  and  _18
REMARK    8  A    between atoms: _17  and  _20
REMARK    9  A    between atoms: _20  and  _21
REMARK   10  A    between atoms: _21  and  _22
REMARK   11  A    between atoms: _25  and  _27
REMARK   12  A    between atoms: _27  and  _28
REMARK   13  A    between atoms: _27  and  _30
REMARK   14  A    between atoms: _30  and  _31
REMARK   15  A    between atoms: _36  and  _38
REMARK   16  A    between atoms: _38  and  _39
REMARK   17  A    between atoms: _41  and  _43
REMARK   18  A    between atoms: _43  and  _44
REMARK   19  A    between atoms: _46  and  _48
REMARK   20  A    between atoms: _48  and  _49
REMARK   21  A    between atoms: _48  and  _51
REMARK   22  A    between atoms: _51  and  _52
REMARK   23  A    between atoms: _55  and  _57
REMARK   24  A    between atoms: _57  and  _58
REMARK   25  A    between atoms: _60  and  _62
REMARK   26  A    between atoms: _62  and  _63
REMARK   27  A    between atoms: _62  and  _65
REMARK   28  A    between atoms: _65  and  _66
REMARK   29  A    between atoms: _66  and  _67
REMARK   30  A    between atoms: _67  and  _68
REMARK   31  A    between atoms: _77  and  _79
REMARK   32  A    between atoms: _79  and  _80
REMARK   33  A    between atoms: _79  and  _82
REMARK   34  A    between atoms: _82  and  _83
REMARK   35  A    between atoms: _86  and  _88
REMARK   36  A    between atoms: _88  and  _89
REMARK   37  A    between atoms: _92  and  _94
REMARK   38  A    between atoms: _94  and  _95
REMARK   39  A    between atoms: _94  and  _97
REMARK   40  A    between atoms: _97  and  _98
REMARK   41  A    between atoms: _104  and  _106
REMARK   42  A    between atoms: _106  and  _107
REMARK   43  A    between atoms: _106  and  _109
REMARK   44  A    between atoms: _109  and  _110
REMARK   45  A    between atoms: _115  and  _116
REMARK   46  A    between atoms: _119  and  _120
REMARK   47  A    between atoms: _125  and  _127
REMARK   48  A    between atoms: _127  and  _128
REMARK   49  A    between atoms: _127  and  _130
REMARK   50  A    between atoms: _130  and  _131
REMARK   51  A    between atoms: _136  and  _138
REMARK   52  A    between atoms: _138  and  _139
REMARK   53  A    between atoms: _138  and  _141
REMARK   54  A    between atoms: _141  and  _142
REMARK   55  A    between atoms: _145  and  _147
REMARK   56  A    between atoms: _147  and  _148
REMARK   57  A    between atoms: _147  and  _150
REMARK   58  A    between atoms: _150  and  _151
REMARK   59  A    between atoms: _156  and  _158
REMARK   60  A    between atoms: _158  and  _159
REMARK   61  A    between atoms: _158  and  _161
REMARK   62  A    between atoms: _161  and  _162
REMARK   63  A    between atoms: _168  and  _170
REMARK   64  A    between atoms: _170  and  _171
REMARK   65  A    between atoms: _170  and  _173
REMARK   66  A    between atoms: _173  and  _174
REMARK   67  A    between atoms: _180  and  _182
REMARK   68  A    between atoms: _182  and  _183
REMARK   69  A    between atoms: _182  and  _185
REMARK   70  A    between atoms: _185  and  _186
REMARK   71  A    between atoms: _186  and  _187
REMARK   72  A    between atoms: _190  and  _192
REMARK   73  A    between atoms: _192  and  _193
REMARK   74  A    between atoms: _195  and  _197
REMARK   75  A    between atoms: _197  and  _198
REMARK   76  A    between atoms: _197  and  _200
REMARK   77  A    between atoms: _200  and  _201
REMARK   78  A    between atoms: _201  and  _202
REMARK   79  A    between atoms: _202  and  _203
REMARK   80  A    between atoms: _203  and  _204
REMARK   81  A    between atoms: _208  and  _210
REMARK   82  A    between atoms: _210  and  _211
REMARK   83  A    between atoms: _210  and  _213
REMARK   84  A    between atoms: _213  and  _214
REMARK   85  A    between atoms: _214  and  _215
REMARK   86  A    between atoms: _215  and  _216
REMARK   87  A    between atoms: _225  and  _227
REMARK   88  A    between atoms: _227  and  _228
REMARK   89  A    between atoms: _227  and  _230
REMARK   90  A    between atoms: _230  and  _231
REMARK   91  A    between atoms: _231  and  _232
REMARK   92  A    between atoms: _235  and  _237
REMARK   93  A    between atoms: _237  and  _238
REMARK   94  A    between atoms: _237  and  _240
REMARK   95  A    between atoms: _240  and  _241
REMARK   96  A    between atoms: _246  and  _248
REMARK   97  A    between atoms: _248  and  _249
REMARK   98  A    between atoms: _248  and  _251
REMARK   99  A    between atoms: _251  and  _252
REMARK  100  A    between atoms: _255  and  _257
REMARK  101  A    between atoms: _257  and  _258
REMARK  102  A    between atoms: _257  and  _260
REMARK  103  A    between atoms: _260  and  _261
REMARK  104  A    between atoms: _264  and  _266
REMARK  105  A    between atoms: _266  and  _267
REMARK  106  A    between atoms: _266  and  _269
REMARK  107  A    between atoms: _269  and  _270
REMARK  108  A    between atoms: _275  and  _277
REMARK  109  A    between atoms: _277  and  _278
REMARK  110  A    between atoms: _277  and  _280
REMARK  111  A    between atoms: _280  and  _281
REMARK  112  A    between atoms: _284  and  _286
REMARK  113  A    between atoms: _286  and  _287
REMARK  114  A    between atoms: _286  and  _289
REMARK  115  A    between atoms: _289  and  _290
REMARK  116  A    between atoms: _295  and  _297
REMARK  117  A    between atoms: _297  and  _298
REMARK  118  A    between atoms: _297  and  _300
REMARK  119  A    between atoms: _300  and  _301
REMARK  120  A    between atoms: _306  and  _308
REMARK  121  A    between atoms: _308  and  _309
REMARK  122  A    between atoms: _308  and  _311
REMARK  123  A    between atoms: _311  and  _312
REMARK  124  A    between atoms: _315  and  _317
REMARK  125  A    between atoms: _317  and  _318
REMARK  126  A    between atoms: _317  and  _320
REMARK  127  A    between atoms: _323  and  _325
REMARK  128  A    between atoms: _325  and  _326
REMARK  129  A    between atoms: _325  and  _328
REMARK  130  A    between atoms: _328  and  _329
REMARK  131  A    between atoms: _333  and  _334
REMARK  132  A    between atoms: _339  and  _341
REMARK  133  A    between atoms: _341  and  _342
REMARK  134  A    between atoms: _341  and  _344
REMARK  135  A    between atoms: _344  and  _345
REMARK  136  A    between atoms: _345  and  _346
REMARK  137  A    between atoms: _349  and  _351
REMARK  138  A    between atoms: _351  and  _352
REMARK  139  A    between atoms: _355  and  _357
REMARK  140  A    between atoms: _357  and  _358
REMARK  141  A    between atoms: _357  and  _360
REMARK  142  A    between atoms: _360  and  _361
REMARK  143  A    between atoms: _364  and  _366
REMARK  144  A    between atoms: _366  and  _367
REMARK  145  A    between atoms: _366  and  _369
REMARK  146  A    between atoms: _369  and  _370
REMARK  147  A    between atoms: _370  and  _371
REMARK  148  A    between atoms: _374  and  _376
REMARK  149  A    between atoms: _376  and  _377
REMARK  150  A    between atoms: _376  and  _379
REMARK  151  A    between atoms: _379  and  _380
REMARK  152  A    between atoms: _385  and  _387
REMARK  153  A    between atoms: _387  and  _388
REMARK  154  A    between atoms: _390  and  _392
REMARK  155  A    between atoms: _392  and  _393
REMARK  156  A    between atoms: _392  and  _395
REMARK  157  A    between atoms: _398  and  _400
REMARK  158  A    between atoms: _400  and  _401
REMARK  159  A    between atoms: _404  and  _406
REMARK  160  A    between atoms: _406  and  _407
REMARK  161  A    between atoms: _406  and  _409
REMARK  162  A    between atoms: _409  and  _410
REMARK  163  A    between atoms: _415  and  _417
REMARK  164  A    between atoms: _417  and  _418
REMARK  165  A    between atoms: _417  and  _420
REMARK  166  A    between atoms: _420  and  _421
REMARK  167  A    between atoms: _421  and  _422
REMARK  168  A    between atoms: _422  and  _423
REMARK  169  A    between atoms: _423  and  _424
REMARK  170  A    between atoms: _428  and  _430
REMARK  171  A    between atoms: _430  and  _431
REMARK  172  A    between atoms: _430  and  _433
REMARK  173  A    between atoms: _433  and  _434
REMARK  174  A    between atoms: _437  and  _439
REMARK  175  A    between atoms: _439  and  _440
REMARK  176  A    between atoms: _439  and  _442
REMARK  177  A    between atoms: _442  and  _443
REMARK  178  A    between atoms: _448  and  _450
REMARK  179  A    between atoms: _450  and  _451
REMARK  180  A    between atoms: _453  and  _455
REMARK  181  A    between atoms: _455  and  _456
REMARK  182  A    between atoms: _455  and  _458
REMARK  183  A    between atoms: _458  and  _459
REMARK  184  A    between atoms: _459  and  _460
REMARK  185  A    between atoms: _460  and  _461
REMARK  186  A    between atoms: _461  and  _462
REMARK  187  A    between atoms: _466  and  _468
REMARK  188  A    between atoms: _468  and  _469
REMARK  189  A    between atoms: _468  and  _471
REMARK  190  A    between atoms: _471  and  _472
REMARK  191  A    between atoms: _472  and  _473
REMARK  192  A    between atoms: _473  and  _474
REMARK  193  A    between atoms: _483  and  _485
REMARK  194  A    between atoms: _485  and  _486
REMARK  195  A    between atoms: _485  and  _488
REMARK  196  A    between atoms: _488  and  _489
REMARK  197  A    between atoms: _494  and  _496
REMARK  198  A    between atoms: _496  and  _497
REMARK  199  A    between atoms: _496  and  _499
REMARK  200  A    between atoms: _499  and  _500
REMARK  201  A    between atoms: _505  and  _506
REMARK  202  A    between atoms: _508  and  _510
REMARK  203  A    between atoms: _510  and  _511
REMARK  204  A    between atoms: _510  and  _513
REMARK  205  A    between atoms: _513  and  _514
REMARK  206  A    between atoms: _514  and  _515
REMARK  207  A    between atoms: _515  and  _516
REMARK  208  A    between atoms: _516  and  _517
REMARK  209  A    between atoms: _521  and  _523
REMARK  210  A    between atoms: _523  and  _524
REMARK  211  A    between atoms: _523  and  _526
REMARK  212  A    between atoms: _526  and  _527
REMARK  213  A    between atoms: _529  and  _531
REMARK  214  A    between atoms: _531  and  _532
REMARK  215  A    between atoms: _531  and  _534
REMARK  216  A    between atoms: _534  and  _535
REMARK  217  A    between atoms: _538  and  _540
REMARK  218  A    between atoms: _540  and  _541
REMARK  219  A    between atoms: _540  and  _543
REMARK  220  A    between atoms: _543  and  _544
REMARK  221  A    between atoms: _544  and  _545
REMARK  222  A    between atoms: _548  and  _550
REMARK  223  A    between atoms: _550  and  _551
REMARK  224  A    between atoms: _554  and  _556
REMARK  225  A    between atoms: _556  and  _557
REMARK  226  A    between atoms: _556  and  _559
REMARK  227  A    between atoms: _559  and  _560
REMARK  228  A    between atoms: _562  and  _564
REMARK  229  A    between atoms: _564  and  _565
REMARK  230  A    between atoms: _567  and  _569
REMARK  231  A    between atoms: _569  and  _570
REMARK  232  A    between atoms: _569  and  _572
REMARK  233  A    between atoms: _572  and  _573
REMARK  234  A    between atoms: _576  and  _578
REMARK  235  A    between atoms: _578  and  _579
REMARK  236  A    between atoms: _581  and  _583
REMARK  237  A    between atoms: _583  and  _584
REMARK  238  A    between atoms: _583  and  _586
REMARK  239  A    between atoms: _586  and  _587
REMARK  240  A    between atoms: _592  and  _594
REMARK  241  A    between atoms: _594  and  _595
REMARK  242  A    between atoms: _594  and  _597
REMARK  243  A    between atoms: _597  and  _598
REMARK  244  A    between atoms: _598  and  _599
REMARK  245  A    between atoms: _606  and  _607
REMARK  246  A    between atoms: _607  and  _623
REMARK  247  A    between atoms: _608  and  _610
REMARK  248  A    between atoms: _610  and  _611
REMARK  249  A    between atoms: _611  and  _612
REMARK  250  A    between atoms: _616  and  _618
REMARK  251  A    between atoms: _618  and  _619
REMARK  252  A    between atoms: _618  and  _626
REMARK  253  A    between atoms: _619  and  _620
REMARK  254  A    between atoms: _620  and  _621
REMARK  255  A    between atoms: _621  and  _622
REMARK  256  A    between atoms: _622  and  _623
REMARK  257  A    between atoms: _628  and  _630
REMARK  258  A    between atoms: _630  and  _631
REMARK  259  A    between atoms: _630  and  _633
REMARK  260  A    between atoms: _633  and  _634
REMARK  261  A    between atoms: _637  and  _639
REMARK  262  A    between atoms: _639  and  _640
REMARK  263  A    between atoms: _642  and  _644
REMARK  264  A    between atoms: _644  and  _645
REMARK  265  A    between atoms: _648  and  _650
REMARK  266  A    between atoms: _650  and  _651
REMARK  267  A    between atoms: _650  and  _653
REMARK  268  A    between atoms: _653  and  _654
REMARK  269  A    between atoms: _659  and  _660
REMARK                            x       y       z     vdW  Elec       q    Type
REMARK                         _______ _______ _______ _____ _____    ______ ____
ROOT
ATOM      1  CG  TYR A   1      33.951   7.429  28.537  0.00  0.00    -0.020 A 
ATOM      2  CD2 TYR A   1      35.132   7.987  29.033  0.00  0.00    -0.001 A 
ATOM      3  CE2 TYR A   1      35.443   9.329  28.812  0.00  0.00    +0.036 A 
ATOM      4  CZ  TYR A   1      34.565  10.121  28.094  0.00  0.00    +0.134 A 
ATOM      5  CE1 TYR A   1      33.385   9.593  27.602  0.00  0.00    +0.036 A 
ATOM      6  CD1 TYR A   1      33.085   8.251  27.822  0.00  0.00    -0.001 A 
ENDROOT
BRANCH   4   7
ATOM      7  OH  TYR A   1      34.855  11.446  27.874  0.00  0.00    -0.506 OA
ATOM      8  HH  TYR A   1      34.898  11.616  26.900  0.00  0.00    +0.292 HD
ENDBRANCH   4   7
BRANCH   1   9
ATOM      9  CB  TYR A   1      33.611   5.977  28.794  0.00  0.00    +0.051 C 
BRANCH   9  10
ATOM     10  CA  TYR A   1      34.163   4.979  27.775  0.00  0.00    +0.137 C 
BRANCH  10  11
ATOM     11  N   TYR A   1      33.259   4.841  26.628  0.00  0.00    -0.239 NA
ATOM     12  H   TYR A   1      32.425   5.458  26.557  0.00  0.00    +0.142 HD
ENDBRANCH  10  11
BRANCH  10  13
ATOM     13  C   TYR A   1      34.371   3.628  28.468  0.00  0.00    +0.224 C 
ATOM     14  O   TYR A   1      35.492   3.251  28.792  0.00  0.00    -0.287 OA
ENDBRANCH  10  13
ENDBRANCH   9  10
ENDBRANCH   1   9
TORSDOF 5
REMARK  Name = ../refined-set-2016/2pyi/2pyi_pocket.pdb
REMARK  269 active torsions:
REMARK  status: ('A' for Active; 'I' for Inactive)
REMARK    1  A    between atoms: _1  and  _3
REMARK    2  A    between atoms: _3  and  _4
REMARK    3  A    between atoms: _3  and  _6
REMARK    4  A    between atoms: _6  and  _7
REMARK    5  A    between atoms: _12  and  _13
REMARK    6  A    between atoms: _15  and  _17
REMARK    7  A    between atoms: _17  and  _18
REMARK    8  A    between atoms: _17  and  _20
REMARK    9  A    between atoms: _20  and  _21
REMARK   10  A    between atoms: _21  and  _22
REMARK   11  A    between atoms: _25  and  _27
REMARK   12  A    between atoms: _27  and  _28
REMARK   13  A    between atoms: _27  and  _30
REMARK   14  A    between atoms: _30  and  _31
REMARK   15  A    between atoms: _36  and  _38
REMARK   16  A    between atoms: _38  and  _39
REMARK   17  A    between atoms: _41  and  _43
REMARK   18  A    between atoms: _43  and  _44
REMARK   19  A    between atoms: _46  and  _48
REMARK   20  A    between atoms: _48  and  _49
REMARK   21  A    between atoms: _48  and  _51
REMARK   22  A    between atoms: _51  and  _52
REMARK   23  A    between atoms: _55  and  _57
REMARK   24  A    between atoms: _57  and  _58
REMARK   25  A    between atoms: _60  and  _62
REMARK   26  A    between atoms: _62  and  _63
REMARK   27  A    between atoms: _62  and  _65
REMARK   28  A    between atoms: _65  and  _66
REMARK   29  A    between atoms: _66  and  _67
REMARK   30  A    between atoms: _67  and  _68
REMARK   31  A    between atoms: _77  and  _79
REMARK   32  A    between atoms: _79  and  _80
REMARK   33  A    between atoms: _79  and  _82
REMARK   34  A    between atoms: _82  and  _83
REMARK   35  A    between atoms: _86  and  _88
REMARK   36  A    between atoms: _88  and  _89
REMARK   37  A    between atoms: _92  and  _94
REMARK   38  A    between atoms: _94  and  _95
REMARK   39  A    between atoms: _94  and  _97
REMARK   40  A    between atoms: _97  and  _98
REMARK   41  A    between atoms: _104  and  _106
REMARK   42  A    between atoms: _106  and  _107
REMARK   43  A    between atoms: _106  and  _109
REMARK   44  A    between atoms: _109  and  _110
REMARK   45  A    between atoms: _115  and  _116
REMARK   46  A    between atoms: _119  and  _120
REMARK   47  A    between atoms: _125  and  _127
REMARK   48  A    between atoms: _127  and  _128
REMARK   49  A    between atoms: _127  and  _130
REMARK   50  A    between atoms: _130  and  _131
REMARK   51  A    between atoms: _136  and  _138
REMARK   52  A    between atoms: _138  and  _139
REMARK   53  A    between atoms: _138  and  _141
REMARK   54  A    between atoms: _141  and  _142
REMARK   55  A    between atoms: _145  and  _147
REMARK   56  A    between atoms: _147  and  _148
REMARK   57  A    between atoms: _147  and  _150
REMARK   58  A    between atoms: _150  and  _151
REMARK   59  A    between atoms: _156  and  _158
REMARK   60  A    between atoms: _158  and  _159
REMARK   61  A    between atoms: _158  and  _161
REMARK   62  A    between atoms: _161  and  _162
REMARK   63  A    between atoms: _168  and  _170
REMARK   64  A    between atoms: _170  and  _171
REMARK   65  A    between atoms: _170  and  _173
REMARK   66  A    between atoms: _173  and  _174
REMARK   67  A    between atoms: _180  and  _182
REMARK   68  A    between atoms: _182  and  _183
REMARK   69  A    between atoms: _182  and  _185
REMARK   70  A    between atoms: _185  and  _186
REMARK   71  A    between atoms: _186  and  _187
REMARK   72  A    between atoms: _190  and  _192
REMARK   73  A    between atoms: _192  and  _193
REMARK   74  A    between atoms: _195  and  _197
REMARK   75  A    between atoms: _197  and  _198
REMARK   76  A    between atoms: _197  and  _200
REMARK   77  A    between atoms: _200  and  _201
REMARK   78  A    between atoms: _201  and  _202
REMARK   79  A    between atoms: _202  and  _203
REMARK   80  A    between atoms: _203  and  _204
REMARK   81  A    between atoms: _208  and  _210
REMARK   82  A    between atoms: _210  and  _211
REMARK   83  A    between atoms: _210  and  _213
REMARK   84  A    between atoms: _213  and  _214
REMARK   85  A    between atoms: _214  and  _215
REMARK   86  A    between atoms: _215  and  _216
REMARK   87  A    between atoms: _225  and  _227
REMARK   88  A    between atoms: _227  and  _228
REMARK   89  A    between atoms: _227  and  _230
REMARK   90  A    between atoms: _230  and  _231
REMARK   91  A    between atoms: _231  and  _232
REMARK   92  A    between atoms: _235  and  _237
REMARK   93  A    between atoms: _237  and  _238
REMARK   94  A    between atoms: _237  and  _240
REMARK   95  A    between atoms: _240  and  _241
REMARK   96  A    between atoms: _246  and  _248
REMARK   97  A    between atoms: _248  and  _249
REMARK   98  A    between atoms: _248  and  _251
REMARK   99  A    between atoms: _251  and  _252
REMARK  100  A    between atoms: _255  and  _257
REMARK  101  A    between atoms: _257  and  _258
REMARK  102  A    between atoms: _257  and  _260
REMARK  103  A    between atoms: _260  and  _261
REMARK  104  A    between atoms: _264  and  _266
REMARK  105  A    between atoms: _266  and  _267
REMARK  106  A    between atoms: _266  and  _269
REMARK  107  A    between atoms: _269  and  _270
REMARK  108  A    between atoms: _275  and  _277
REMARK  109  A    between atoms: _277  and  _278
REMARK  110  A    between atoms: _277  and  _280
REMARK  111  A    between atoms: _280  and  _281
REMARK  112  A    between atoms: _284  and  _286
REMARK  113  A    between atoms: _286  and  _287
REMARK  114  A    between atoms: _286  and  _289
REMARK  115  A    between atoms: _289  and  _290
REMARK  116  A    between atoms: _295  and  _297
REMARK  117  A    between atoms: _297  and  _298
REMARK  118  A    between atoms: _297  and  _300
REMARK  119  A    between atoms: _300  and  _301
REMARK  120  A    between atoms: _306  and  _308
REMARK  121  A    between atoms: _308  and  _309
REMARK  122  A    between atoms: _308  and  _311
REMARK  123  A    between atoms: _311  and  _312
REMARK  124  A    between atoms: _315  and  _317
REMARK  125  A    between atoms: _317  and  _318
REMARK  126  A    between atoms: _317  and  _320
REMARK  127  A    between atoms: _323  and  _325
REMARK  128  A    between atoms: _325  and  _326
REMARK  129  A    between atoms: _325  and  _328
REMARK  130  A    between atoms: _328  and  _329
REMARK  131  A    between atoms: _333  and  _334
REMARK  132  A    between atoms: _339  and  _341
REMARK  133  A    between atoms: _341  and  _342
REMARK  134  A    between atoms: _341  and  _344
REMARK  135  A    between atoms: _344  and  _345
REMARK  136  A    between atoms: _345  and  _346
REMARK  137  A    between atoms: _349  and  _351
REMARK  138  A    between atoms: _351  and  _352
REMARK  139  A    between atoms: _355  and  _357
REMARK  140  A    between atoms: _357  and  _358
REMARK  141  A    between atoms: _357  and  _360
REMARK  142  A    between atoms: _360  and  _361
REMARK  143  A    between atoms: _364  and  _366
REMARK  144  A    between atoms: _366  and  _367
REMARK  145  A    between atoms: _366  and  _369
REMARK  146  A    between atoms: _369  and  _370
REMARK  147  A    between atoms: _370  and  _371
REMARK  148  A    between atoms: _374  and  _376
REMARK  149  A    between atoms: _376  and  _377
REMARK  150  A    between atoms: _376  and  _379
REMARK  151  A    between atoms: _379  and  _380
REMARK  152  A    between atoms: _385  and  _387
REMARK  153  A    between atoms: _387  and  _388
REMARK  154  A    between atoms: _390  and  _392
REMARK  155  A    between atoms: _392  and  _393
REMARK  156  A    between atoms: _392  and  _395
REMARK  157  A    between atoms: _398  and  _400
REMARK  158  A    between atoms: _400  and  _401
REMARK  159  A    between atoms: _404  and  _406
REMARK  160  A    between atoms: _406  and  _407
REMARK  161  A    between atoms: _406  and  _409
REMARK  162  A    between atoms: _409  and  _410
REMARK  163  A    between atoms: _415  and  _417
REMARK  164  A    between atoms: _417  and  _418
REMARK  165  A    between atoms: _417  and  _420
REMARK  166  A    between atoms: _420  and  _421
REMARK  167  A    between atoms: _421  and  _422
REMARK  168  A    between atoms: _422  and  _423
REMARK  169  A    between atoms: _423  and  _424
REMARK  170  A    between atoms: _428  and  _430
REMARK  171  A    between atoms: _430  and  _431
REMARK  172  A    between atoms: _430  and  _433
REMARK  173  A    between atoms: _433  and  _434
REMARK  174  A    between atoms: _437  and  _439
REMARK  175  A    between atoms: _439  and  _440
REMARK  176  A    between atoms: _439  and  _442
REMARK  177  A    between atoms: _442  and  _443
REMARK  178  A    between atoms: _448  and  _450
REMARK  179  A    between atoms: _450  and  _451
REMARK  180  A    between atoms: _453  and  _455
REMARK  181  A    between atoms: _455  and  _456
REMARK  182  A    between atoms: _455  and  _458
REMARK  183  A    between atoms: _458  and  _459
REMARK  184  A    between atoms: _459  and  _460
REMARK  185  A    between atoms: _460  and  _461
REMARK  186  A    between atoms: _461  and  _462
REMARK  187  A    between atoms: _466  and  _468
REMARK  188  A    between atoms: _468  and  _469
REMARK  189  A    between atoms: _468  and  _471
REMARK  190  A    between atoms: _471  and  _472
REMARK  191  A    between atoms: _472  and  _473
REMARK  192  A    between atoms: _473  and  _474
REMARK  193  A    between atoms: _483  and  _485
REMARK  194  A    between atoms: _485  and  _486
REMARK  195  A    between atoms: _485  and  _488
REMARK  196  A    between atoms: _488  and  _489
REMARK  197  A    between atoms: _494  and  _496
REMARK  198  A    between atoms: _496  and  _497
REMARK  199  A    between atoms: _496  and  _499
REMARK  200  A    between atoms: _499  and  _500
REMARK  201  A    between atoms: _505  and  _506
REMARK  202  A    between atoms: _508  and  _510
REMARK  203  A    between atoms: _510  and  _511
REMARK  204  A    between atoms: _510  and  _513
REMARK  205  A    between atoms: _513  and  _514
REMARK  206  A    between atoms: _514  and  _515
REMARK  207  A    between atoms: _515  and  _516
REMARK  208  A    between atoms: _516  and  _517
REMARK  209  A    between atoms: _521  and  _523
REMARK  210  A    between atoms: _523  and  _524
REMARK  211  A    between atoms: _523  and  _526
REMARK  212  A    between atoms: _526  and  _527
REMARK  213  A    between atoms: _529  and  _531
REMARK  214  A    between atoms: _531  and  _532
REMARK  215  A    between atoms: _531  and  _534
REMARK  216  A    between atoms: _534  and  _535
REMARK  217  A    between atoms: _538  and  _540
REMARK  218  A    between atoms: _540  and  _541
REMARK  219  A    between atoms: _540  and  _543
REMARK  220  A    between atoms: _543  and  _544
REMARK  221  A    between atoms: _544  and  _545
REMARK  222  A    between atoms: _548  and  _550
REMARK  223  A    between atoms: _550  and  _551
REMARK  224  A    between atoms: _554  and  _556
REMARK  225  A    between atoms: _556  and  _557
REMARK  226  A    between atoms: _556  and  _559
REMARK  227  A    between atoms: _559  and  _560
REMARK  228  A    between atoms: _562  and  _564
REMARK  229  A    between atoms: _564  and  _565
REMARK  230  A    between atoms: _567  and  _569
REMARK  231  A    between atoms: _569  and  _570
REMARK  232  A    between atoms: _569  and  _572
REMARK  233  A    between atoms: _572  and  _573
REMARK  234  A    between atoms: _576  and  _578
REMARK  235  A    between atoms: _578  and  _579
REMARK  236  A    between atoms: _581  and  _583
REMARK  237  A    between atoms: _583  and  _584
REMARK  238  A    between atoms: _583  and  _586
REMARK  239  A    between atoms: _586  and  _587
REMARK  240  A    between atoms: _592  and  _594
REMARK  241  A    between atoms: _594  and  _595
REMARK  242  A    between atoms: _594  and  _597
REMARK  243  A    between atoms: _597  and  _598
REMARK  244  A    between atoms: _598  and  _599
REMARK  245  A    between atoms: _606  and  _607
REMARK  246  A    between atoms: _607  and  _623
REMARK  247  A    between atoms: _608  and  _610
REMARK  248  A    between atoms: _610  and  _611
REMARK  249  A    between atoms: _611  and  _612
REMARK  250  A    between atoms: _616  and  _618
REMARK  251  A    between atoms: _618  and  _619
REMARK  252  A    between atoms: _618  and  _626
REMARK  253  A    between atoms: _619  and  _620
REMARK  254  A    between atoms: _620  and  _621
REMARK  255  A    between atoms: _621  and  _622
REMARK  256  A    between atoms: _622  and  _623
REMARK  257  A    between atoms: _628  and  _630
REMARK  258  A    between atoms: _630  and  _631
REMARK  259  A    between atoms: _630  and  _633
REMARK  260  A    between atoms: _633  and  _634
REMARK  261  A    between atoms: _637  and  _639
REMARK  262  A    between atoms: _639  and  _640
REMARK  263  A    between atoms: _642  and  _644
REMARK  264  A    between atoms: _644  and  _645
REMARK  265  A    between atoms: _648  and  _650
REMARK  266  A    between atoms: _650  and  _651
REMARK  267  A    between atoms: _650  and  _653
REMARK  268  A    between atoms: _653  and  _654
REMARK  269  A    between atoms: _659  and  _660
REMARK                            x       y       z     vdW  Elec       q    Type
REMARK                         _______ _______ _______ _____ _____    ______ ____
ROOT
ATOM      1  O   HOH     1      34.989  25.818  41.828  0.00  0.00    +0.000 OA
ENDROOT
TORSDOF 0
REMARK  Name = ../refined-set-2016/2pyi/2pyi_pocket.pdb
REMARK  269 active torsions:
REMARK  status: ('A' for Active; 'I' for Inactive)
REMARK    1  A    between atoms: _1  and  _3
REMARK    2  A    between atoms: _3  and  _4
REMARK    3  A    between atoms: _3  and  _6
REMARK    4  A    between atoms: _6  and  _7
REMARK    5  A    between atoms: _12  and  _13
REMARK    6  A    between atoms: _15  and  _17
REMARK    7  A    between atoms: _17  and  _18
REMARK    8  A    between atoms: _17  and  _20
REMARK    9  A    between atoms: _20  and  _21
REMARK   10  A    between atoms: _21  and  _22
REMARK   11  A    between atoms: _25  and  _27
REMARK   12  A    between atoms: _27  and  _28
REMARK   13  A    between atoms: _27  and  _30
REMARK   14  A    between atoms: _30  and  _31
REMARK   15  A    between atoms: _36  and  _38
REMARK   16  A    between atoms: _38  and  _39
REMARK   17  A    between atoms: _41  and  _43
REMARK   18  A    between atoms: _43  and  _44
REMARK   19  A    between atoms: _46  and  _48
REMARK   20  A    between atoms: _48  and  _49
REMARK   21  A    between atoms: _48  and  _51
REMARK   22  A    between atoms: _51  and  _52
REMARK   23  A    between atoms: _55  and  _57
REMARK   24  A    between atoms: _57  and  _58
REMARK   25  A    between atoms: _60  and  _62
REMARK   26  A    between atoms: _62  and  _63
REMARK   27  A    between atoms: _62  and  _65
REMARK   28  A    between atoms: _65  and  _66
REMARK   29  A    between atoms: _66  and  _67
REMARK   30  A    between atoms: _67  and  _68
REMARK   31  A    between atoms: _77  and  _79
REMARK   32  A    between atoms: _79  and  _80
REMARK   33  A    between atoms: _79  and  _82
REMARK   34  A    between atoms: _82  and  _83
REMARK   35  A    between atoms: _86  and  _88
REMARK   36  A    between atoms: _88  and  _89
REMARK   37  A    between atoms: _92  and  _94
REMARK   38  A    between atoms: _94  and  _95
REMARK   39  A    between atoms: _94  and  _97
REMARK   40  A    between atoms: _97  and  _98
REMARK   41  A    between atoms: _104  and  _106
REMARK   42  A    between atoms: _106  and  _107
REMARK   43  A    between atoms: _106  and  _109
REMARK   44  A    between atoms: _109  and  _110
REMARK   45  A    between atoms: _115  and  _116
REMARK   46  A    between atoms: _119  and  _120
REMARK   47  A    between atoms: _125  and  _127
REMARK   48  A    between atoms: _127  and  _128
REMARK   49  A    between atoms: _127  and  _130
REMARK   50  A    between atoms: _130  and  _131
REMARK   51  A    between atoms: _136  and  _138
REMARK   52  A    between atoms: _138  and  _139
REMARK   53  A    between atoms: _138  and  _141
REMARK   54  A    between atoms: _141  and  _142
REMARK   55  A    between atoms: _145  and  _147
REMARK   56  A    between atoms: _147  and  _148
REMARK   57  A    between atoms: _147  and  _150
REMARK   58  A    between atoms: _150  and  _151
REMARK   59  A    between atoms: _156  and  _158
REMARK   60  A    between atoms: _158  and  _159
REMARK   61  A    between atoms: _158  and  _161
REMARK   62  A    between atoms: _161  and  _162
REMARK   63  A    between atoms: _168  and  _170
REMARK   64  A    between atoms: _170  and  _171
REMARK   65  A    between atoms: _170  and  _173
REMARK   66  A    between atoms: _173  and  _174
REMARK   67  A    between atoms: _180  and  _182
REMARK   68  A    between atoms: _182  and  _183
REMARK   69  A    between atoms: _182  and  _185
REMARK   70  A    between atoms: _185  and  _186
REMARK   71  A    between atoms: _186  and  _187
REMARK   72  A    between atoms: _190  and  _192
REMARK   73  A    between atoms: _192  and  _193
REMARK   74  A    between atoms: _195  and  _197
REMARK   75  A    between atoms: _197  and  _198
REMARK   76  A    between atoms: _197  and  _200
REMARK   77  A    between atoms: _200  and  _201
REMARK   78  A    between atoms: _201  and  _202
REMARK   79  A    between atoms: _202  and  _203
REMARK   80  A    between atoms: _203  and  _204
REMARK   81  A    between atoms: _208  and  _210
REMARK   82  A    between atoms: _210  and  _211
REMARK   83  A    between atoms: _210  and  _213
REMARK   84  A    between atoms: _213  and  _214
REMARK   85  A    between atoms: _214  and  _215
REMARK   86  A    between atoms: _215  and  _216
REMARK   87  A    between atoms: _225  and  _227
REMARK   88  A    between atoms: _227  and  _228
REMARK   89  A    between atoms: _227  and  _230
REMARK   90  A    between atoms: _230  and  _231
REMARK   91  A    between atoms: _231  and  _232
REMARK   92  A    between atoms: _235  and  _237
REMARK   93  A    between atoms: _237  and  _238
REMARK   94  A    between atoms: _237  and  _240
REMARK   95  A    between atoms: _240  and  _241
REMARK   96  A    between atoms: _246  and  _248
REMARK   97  A    between atoms: _248  and  _249
REMARK   98  A    between atoms: _248  and  _251
REMARK   99  A    between atoms: _251  and  _252
REMARK  100  A    between atoms: _255  and  _257
REMARK  101  A    between atoms: _257  and  _258
REMARK  102  A    between atoms: _257  and  _260
REMARK  103  A    between atoms: _260  and  _261
REMARK  104  A    between atoms: _264  and  _266
REMARK  105  A    between atoms: _266  and  _267
REMARK  106  A    between atoms: _266  and  _269
REMARK  107  A    between atoms: _269  and  _270
REMARK  108  A    between atoms: _275  and  _277
REMARK  109  A    between atoms: _277  and  _278
REMARK  110  A    between atoms: _277  and  _280
REMARK  111  A    between atoms: _280  and  _281
REMARK  112  A    between atoms: _284  and  _286
REMARK  113  A    between atoms: _286  and  _287
REMARK  114  A    between atoms: _286  and  _289
REMARK  115  A    between atoms: _289  and  _290
REMARK  116  A    between atoms: _295  and  _297
REMARK  117  A    between atoms: _297  and  _298
REMARK  118  A    between atoms: _297  and  _300
REMARK  119  A    between atoms: _300  and  _301
REMARK  120  A    between atoms: _306  and  _308
REMARK  121  A    between atoms: _308  and  _309
REMARK  122  A    between atoms: _308  and  _311
REMARK  123  A    between atoms: _311  and  _312
REMARK  124  A    between atoms: _315  and  _317
REMARK  125  A    between atoms: _317  and  _318
REMARK  126  A    between atoms: _317  and  _320
REMARK  127  A    between atoms: _323  and  _325
REMARK  128  A    between atoms: _325  and  _326
REMARK  129  A    between atoms: _325  and  _328
REMARK  130  A    between atoms: _328  and  _329
REMARK  131  A    between atoms: _333  and  _334
REMARK  132  A    between atoms: _339  and  _341
REMARK  133  A    between atoms: _341  and  _342
REMARK  134  A    between atoms: _341  and  _344
REMARK  135  A    between atoms: _344  and  _345
REMARK  136  A    between atoms: _345  and  _346
REMARK  137  A    between atoms: _349  and  _351
REMARK  138  A    between atoms: _351  and  _352
REMARK  139  A    between atoms: _355  and  _357
REMARK  140  A    between atoms: _357  and  _358
REMARK  141  A    between atoms: _357  and  _360
REMARK  142  A    between atoms: _360  and  _361
REMARK  143  A    between atoms: _364  and  _366
REMARK  144  A    between atoms: _366  and  _367
REMARK  145  A    between atoms: _366  and  _369
REMARK  146  A    between atoms: _369  and  _370
REMARK  147  A    between atoms: _370  and  _371
REMARK  148  A    between atoms: _374  and  _376
REMARK  149  A    between atoms: _376  and  _377
REMARK  150  A    between atoms: _376  and  _379
REMARK  151  A    between atoms: _379  and  _380
REMARK  152  A    between atoms: _385  and  _387
REMARK  153  A    between atoms: _387  and  _388
REMARK  154  A    between atoms: _390  and  _392
REMARK  155  A    between atoms: _392  and  _393
REMARK  156  A    between atoms: _392  and  _395
REMARK  157  A    between atoms: _398  and  _400
REMARK  158  A    between atoms: _400  and  _401
REMARK  159  A    between atoms: _404  and  _406
REMARK  160  A    between atoms: _406  and  _407
REMARK  161  A    between atoms: _406  and  _409
REMARK  162  A    between atoms: _409  and  _410
REMARK  163  A    between atoms: _415  and  _417
REMARK  164  A    between atoms: _417  and  _418
REMARK  165  A    between atoms: _417  and  _420
REMARK  166  A    between atoms: _420  and  _421
REMARK  167  A    between atoms: _421  and  _422
REMARK  168  A    between atoms: _422  and  _423
REMARK  169  A    between atoms: _423  and  _424
REMARK  170  A    between atoms: _428  and  _430
REMARK  171  A    between atoms: _430  and  _431
REMARK  172  A    between atoms: _430  and  _433
REMARK  173  A    between atoms: _433  and  _434
REMARK  174  A    between atoms: _437  and  _439
REMARK  175  A    between atoms: _439  and  _440
REMARK  176  A    between atoms: _439  and  _442
REMARK  177  A    between atoms: _442  and  _443
REMARK  178  A    between atoms: _448  and  _450
REMARK  179  A    between atoms: _450  and  _451
REMARK  180  A    between atoms: _453  and  _455
REMARK  181  A    between atoms: _455  and  _456
REMARK  182  A    between atoms: _455  and  _458
REMARK  183  A    between atoms: _458  and  _459
REMARK  184  A    between atoms: _459  and  _460
REMARK  185  A    between atoms: _460  and  _461
REMARK  186  A    between atoms: _461  and  _462
REMARK  187  A    between atoms: _466  and  _468
REMARK  188  A    between atoms: _468  and  _469
REMARK  189  A    between atoms: _468  and  _471
REMARK  190  A    between atoms: _471  and  _472
REMARK  191  A    between atoms: _472  and  _473
REMARK  192  A    between atoms: _473  and  _474
REMARK  193  A    between atoms: _483  and  _485
REMARK  194  A    between atoms: _485  and  _486
REMARK  195  A    between atoms: _485  and  _488
REMARK  196  A    between atoms: _488  and  _489
REMARK  197  A    between atoms: _494  and  _496
REMARK  198  A    between atoms: _496  and  _497
REMARK  199  A    between atoms: _496  and  _499
REMARK  200  A    between atoms: _499  and  _500
REMARK  201  A    between atoms: _505  and  _506
REMARK  202  A    between atoms: _508  and  _510
REMARK  203  A    between atoms: _510  and  _511
REMARK  204  A    between atoms: _510  and  _513
REMARK  205  A    between atoms: _513  and  _514
REMARK  206  A    between atoms: _514  and  _515
REMARK  207  A    between atoms: _515  and  _516
REMARK  208  A    between atoms: _516  and  _517
REMARK  209  A    between atoms: _521  and  _523
REMARK  210  A    between atoms: _523  and  _524
REMARK  211  A    between atoms: _523  and  _526
REMARK  212  A    between atoms: _526  and  _527
REMARK  213  A    between atoms: _529  and  _531
REMARK  214  A    between atoms: _531  and  _532
REMARK  215  A    between atoms: _531  and  _534
REMARK  216  A    between atoms: _534  and  _535
REMARK  217  A    between atoms: _538  and  _540
REMARK  218  A    between atoms: _540  and  _541
REMARK  219  A    between atoms: _540  and  _543
REMARK  220  A    between atoms: _543  and  _544
REMARK  221  A    between atoms: _544  and  _545
REMARK  222  A    between atoms: _548  and  _550
REMARK  223  A    between atoms: _550  and  _551
REMARK  224  A    between atoms: _554  and  _556
REMARK  225  A    between atoms: _556  and  _557
REMARK  226  A    between atoms: _556  and  _559
REMARK  227  A    between atoms: _559  and  _560
REMARK  228  A    between atoms: _562  and  _564
REMARK  229  A    between atoms: _564  and  _565
REMARK  230  A    between atoms: _567  and  _569
REMARK  231  A    between atoms: _569  and  _570
REMARK  232  A    between atoms: _569  and  _572
REMARK  233  A    between atoms: _572  and  _573
REMARK  234  A    between atoms: _576  and  _578
REMARK  235  A    between atoms: _578  and  _579
REMARK  236  A    between atoms: _581  and  _583
REMARK  237  A    between atoms: _583  and  _584
REMARK  238  A    between atoms: _583  and  _586
REMARK  239  A    between atoms: _586  and  _587
REMARK  240  A    between atoms: _592  and  _594
REMARK  241  A    between atoms: _594  and  _595
REMARK  242  A    between atoms: _594  and  _597
REMARK  243  A    between atoms: _597  and  _598
REMARK  244  A    between atoms: _598  and  _599
REMARK  245  A    between atoms: _606  and  _607
REMARK  246  A    between atoms: _607  and  _623
REMARK  247  A    between atoms: _608  and  _610
REMARK  248  A    between atoms: _610  and  _611
REMARK  249  A    between atoms: _611  and  _612
REMARK  250  A    between atoms: _616  and  _618
REMARK  251  A    between atoms: _618  and  _619
REMARK  252  A    between atoms: _618  and  _626
REMARK  253  A    between atoms: _619  and  _620
REMARK  254  A    between atoms: _620  and  _621
REMARK  255  A    between atoms: _621  and  _622
REMARK  256  A    between atoms: _622  and  _623
REMARK  257  A    between atoms: _628  and  _630
REMARK  258  A    between atoms: _630  and  _631
REMARK  259  A    between atoms: _630  and  _633
REMARK  260  A    between atoms: _633  and  _634
REMARK  261  A    between atoms: _637  and  _639
REMARK  262  A    between atoms: _639  and  _640
REMARK  263  A    between atoms: _642  and  _644
REMARK  264  A    between atoms: _644  and  _645
REMARK  265  A    between atoms: _648  and  _650
REMARK  266  A    between atoms: _650  and  _651
REMARK  267  A    between atoms: _650  and  _653
REMARK  268  A    between atoms: _653  and  _654
REMARK  269  A    between atoms: _659  and  _660
REMARK                            x       y       z     vdW  Elec       q    Type
REMARK                         _______ _______ _______ _____ _____    ______ ____
ROOT
ATOM      1  O   HOH     1      33.095  12.542  26.021  0.00  0.00    +0.000 OA
ENDROOT
TORSDOF 0
REMARK  Name = ../refined-set-2016/2pyi/2pyi_pocket.pdb
REMARK  269 active torsions:
REMARK  status: ('A' for Active; 'I' for Inactive)
REMARK    1  A    between atoms: _1  and  _3
REMARK    2  A    between atoms: _3  and  _4
REMARK    3  A    between atoms: _3  and  _6
REMARK    4  A    between atoms: _6  and  _7
REMARK    5  A    between atoms: _12  and  _13
REMARK    6  A    between atoms: _15  and  _17
REMARK    7  A    between atoms: _17  and  _18
REMARK    8  A    between atoms: _17  and  _20
REMARK    9  A    between atoms: _20  and  _21
REMARK   10  A    between atoms: _21  and  _22
REMARK   11  A    between atoms: _25  and  _27
REMARK   12  A    between atoms: _27  and  _28
REMARK   13  A    between atoms: _27  and  _30
REMARK   14  A    between atoms: _30  and  _31
REMARK   15  A    between atoms: _36  and  _38
REMARK   16  A    between atoms: _38  and  _39
REMARK   17  A    between atoms: _41  and  _43
REMARK   18  A    between atoms: _43  and  _44
REMARK   19  A    between atoms: _46  and  _48
REMARK   20  A    between atoms: _48  and  _49
REMARK   21  A    between atoms: _48  and  _51
REMARK   22  A    between atoms: _51  and  _52
REMARK   23  A    between atoms: _55  and  _57
REMARK   24  A    between atoms: _57  and  _58
REMARK   25  A    between atoms: _60  and  _62
REMARK   26  A    between atoms: _62  and  _63
REMARK   27  A    between atoms: _62  and  _65
REMARK   28  A    between atoms: _65  and  _66
REMARK   29  A    between atoms: _66  and  _67
REMARK   30  A    between atoms: _67  and  _68
REMARK   31  A    between atoms: _77  and  _79
REMARK   32  A    between atoms: _79  and  _80
REMARK   33  A    between atoms: _79  and  _82
REMARK   34  A    between atoms: _82  and  _83
REMARK   35  A    between atoms: _86  and  _88
REMARK   36  A    between atoms: _88  and  _89
REMARK   37  A    between atoms: _92  and  _94
REMARK   38  A    between atoms: _94  and  _95
REMARK   39  A    between atoms: _94  and  _97
REMARK   40  A    between atoms: _97  and  _98
REMARK   41  A    between atoms: _104  and  _106
REMARK   42  A    between atoms: _106  and  _107
REMARK   43  A    between atoms: _106  and  _109
REMARK   44  A    between atoms: _109  and  _110
REMARK   45  A    between atoms: _115  and  _116
REMARK   46  A    between atoms: _119  and  _120
REMARK   47  A    between atoms: _125  and  _127
REMARK   48  A    between atoms: _127  and  _128
REMARK   49  A    between atoms: _127  and  _130
REMARK   50  A    between atoms: _130  and  _131
REMARK   51  A    between atoms: _136  and  _138
REMARK   52  A    between atoms: _138  and  _139
REMARK   53  A    between atoms: _138  and  _141
REMARK   54  A    between atoms: _141  and  _142
REMARK   55  A    between atoms: _145  and  _147
REMARK   56  A    between atoms: _147  and  _148
REMARK   57  A    between atoms: _147  and  _150
REMARK   58  A    between atoms: _150  and  _151
REMARK   59  A    between atoms: _156  and  _158
REMARK   60  A    between atoms: _158  and  _159
REMARK   61  A    between atoms: _158  and  _161
REMARK   62  A    between atoms: _161  and  _162
REMARK   63  A    between atoms: _168  and  _170
REMARK   64  A    between atoms: _170  and  _171
REMARK   65  A    between atoms: _170  and  _173
REMARK   66  A    between atoms: _173  and  _174
REMARK   67  A    between atoms: _180  and  _182
REMARK   68  A    between atoms: _182  and  _183
REMARK   69  A    between atoms: _182  and  _185
REMARK   70  A    between atoms: _185  and  _186
REMARK   71  A    between atoms: _186  and  _187
REMARK   72  A    between atoms: _190  and  _192
REMARK   73  A    between atoms: _192  and  _193
REMARK   74  A    between atoms: _195  and  _197
REMARK   75  A    between atoms: _197  and  _198
REMARK   76  A    between atoms: _197  and  _200
REMARK   77  A    between atoms: _200  and  _201
REMARK   78  A    between atoms: _201  and  _202
REMARK   79  A    between atoms: _202  and  _203
REMARK   80  A    between atoms: _203  and  _204
REMARK   81  A    between atoms: _208  and  _210
REMARK   82  A    between atoms: _210  and  _211
REMARK   83  A    between atoms: _210  and  _213
REMARK   84  A    between atoms: _213  and  _214
REMARK   85  A    between atoms: _214  and  _215
REMARK   86  A    between atoms: _215  and  _216
REMARK   87  A    between atoms: _225  and  _227
REMARK   88  A    between atoms: _227  and  _228
REMARK   89  A    between atoms: _227  and  _230
REMARK   90  A    between atoms: _230  and  _231
REMARK   91  A    between atoms: _231  and  _232
REMARK   92  A    between atoms: _235  and  _237
REMARK   93  A    between atoms: _237  and  _238
REMARK   94  A    between atoms: _237  and  _240
REMARK   95  A    between atoms: _240  and  _241
REMARK   96  A    between atoms: _246  and  _248
REMARK   97  A    between atoms: _248  and  _249
REMARK   98  A    between atoms: _248  and  _251
REMARK   99  A    between atoms: _251  and  _252
REMARK  100  A    between atoms: _255  and  _257
REMARK  101  A    between atoms: _257  and  _258
REMARK  102  A    between atoms: _257  and  _260
REMARK  103  A    between atoms: _260  and  _261
REMARK  104  A    between atoms: _264  and  _266
REMARK  105  A    between atoms: _266  and  _267
REMARK  106  A    between atoms: _266  and  _269
REMARK  107  A    between atoms: _269  and  _270
REMARK  108  A    between atoms: _275  and  _277
REMARK  109  A    between atoms: _277  and  _278
REMARK  110  A    between atoms: _277  and  _280
REMARK  111  A    between atoms: _280  and  _281
REMARK  112  A    between atoms: _284  and  _286
REMARK  113  A    between atoms: _286  and  _287
REMARK  114  A    between atoms: _286  and  _289
REMARK  115  A    between atoms: _289  and  _290
REMARK  116  A    between atoms: _295  and  _297
REMARK  117  A    between atoms: _297  and  _298
REMARK  118  A    between atoms: _297  and  _300
REMARK  119  A    between atoms: _300  and  _301
REMARK  120  A    between atoms: _306  and  _308
REMARK  121  A    between atoms: _308  and  _309
REMARK  122  A    between atoms: _308  and  _311
REMARK  123  A    between atoms: _311  and  _312
REMARK  124  A    between atoms: _315  and  _317
REMARK  125  A    between atoms: _317  and  _318
REMARK  126  A    between atoms: _317  and  _320
REMARK  127  A    between atoms: _323  and  _325
REMARK  128  A    between atoms: _325  and  _326
REMARK  129  A    between atoms: _325  and  _328
REMARK  130  A    between atoms: _328  and  _329
REMARK  131  A    between atoms: _333  and  _334
REMARK  132  A    between atoms: _339  and  _341
REMARK  133  A    between atoms: _341  and  _342
REMARK  134  A    between atoms: _341  and  _344
REMARK  135  A    between atoms: _344  and  _345
REMARK  136  A    between atoms: _345  and  _346
REMARK  137  A    between atoms: _349  and  _351
REMARK  138  A    between atoms: _351  and  _352
REMARK  139  A    between atoms: _355  and  _357
REMARK  140  A    between atoms: _357  and  _358
REMARK  141  A    between atoms: _357  and  _360
REMARK  142  A    between atoms: _360  and  _361
REMARK  143  A    between atoms: _364  and  _366
REMARK  144  A    between atoms: _366  and  _367
REMARK  145  A    between atoms: _366  and  _369
REMARK  146  A    between atoms: _369  and  _370
REMARK  147  A    between atoms: _370  and  _371
REMARK  148  A    between atoms: _374  and  _376
REMARK  149  A    between atoms: _376  and  _377
REMARK  150  A    between atoms: _376  and  _379
REMARK  151  A    between atoms: _379  and  _380
REMARK  152  A    between atoms: _385  and  _387
REMARK  153  A    between atoms: _387  and  _388
REMARK  154  A    between atoms: _390  and  _392
REMARK  155  A    between atoms: _392  and  _393
REMARK  156  A    between atoms: _392  and  _395
REMARK  157  A    between atoms: _398  and  _400
REMARK  158  A    between atoms: _400  and  _401
REMARK  159  A    between atoms: _404  and  _406
REMARK  160  A    between atoms: _406  and  _407
REMARK  161  A    between atoms: _406  and  _409
REMARK  162  A    between atoms: _409  and  _410
REMARK  163  A    between atoms: _415  and  _417
REMARK  164  A    between atoms: _417  and  _418
REMARK  165  A    between atoms: _417  and  _420
REMARK  166  A    between atoms: _420  and  _421
REMARK  167  A    between atoms: _421  and  _422
REMARK  168  A    between atoms: _422  and  _423
REMARK  169  A    between atoms: _423  and  _424
REMARK  170  A    between atoms: _428  and  _430
REMARK  171  A    between atoms: _430  and  _431
REMARK  172  A    between atoms: _430  and  _433
REMARK  173  A    between atoms: _433  and  _434
REMARK  174  A    between atoms: _437  and  _439
REMARK  175  A    between atoms: _439  and  _440
REMARK  176  A    between atoms: _439  and  _442
REMARK  177  A    between atoms: _442  and  _443
REMARK  178  A    between atoms: _448  and  _450
REMARK  179  A    between atoms: _450  and  _451
REMARK  180  A    between atoms: _453  and  _455
REMARK  181  A    between atoms: _455  and  _456
REMARK  182  A    between atoms: _455  and  _458
REMARK  183  A    between atoms: _458  and  _459
REMARK  184  A    between atoms: _459  and  _460
REMARK  185  A    between atoms: _460  and  _461
REMARK  186  A    between atoms: _461  and  _462
REMARK  187  A    between atoms: _466  and  _468
REMARK  188  A    between atoms: _468  and  _469
REMARK  189  A    between atoms: _468  and  _471
REMARK  190  A    between atoms: _471  and  _472
REMARK  191  A    between atoms: _472  and  _473
REMARK  192  A    between atoms: _473  and  _474
REMARK  193  A    between atoms: _483  and  _485
REMARK  194  A    between atoms: _485  and  _486
REMARK  195  A    between atoms: _485  and  _488
REMARK  196  A    between atoms: _488  and  _489
REMARK  197  A    between atoms: _494  and  _496
REMARK  198  A    between atoms: _496  and  _497
REMARK  199  A    between atoms: _496  and  _499
REMARK  200  A    between atoms: _499  and  _500
REMARK  201  A    between atoms: _505  and  _506
REMARK  202  A    between atoms: _508  and  _510
REMARK  203  A    between atoms: _510  and  _511
REMARK  204  A    between atoms: _510  and  _513
REMARK  205  A    between atoms: _513  and  _514
REMARK  206  A    between atoms: _514  and  _515
REMARK  207  A    between atoms: _515  and  _516
REMARK  208  A    between atoms: _516  and  _517
REMARK  209  A    between atoms: _521  and  _523
REMARK  210  A    between atoms: _523  and  _524
REMARK  211  A    between atoms: _523  and  _526
REMARK  212  A    between atoms: _526  and  _527
REMARK  213  A    between atoms: _529  and  _531
REMARK  214  A    between atoms: _531  and  _532
REMARK  215  A    between atoms: _531  and  _534
REMARK  216  A    between atoms: _534  and  _535
REMARK  217  A    between atoms: _538  and  _540
REMARK  218  A    between atoms: _540  and  _541
REMARK  219  A    between atoms: _540  and  _543
REMARK  220  A    between atoms: _543  and  _544
REMARK  221  A    between atoms: _544  and  _545
REMARK  222  A    between atoms: _548  and  _550
REMARK  223  A    between atoms: _550  and  _551
REMARK  224  A    between atoms: _554  and  _556
REMARK  225  A    between atoms: _556  and  _557
REMARK  226  A    between atoms: _556  and  _559
REMARK  227  A    between atoms: _559  and  _560
REMARK  228  A    between atoms: _562  and  _564
REMARK  229  A    between atoms: _564  and  _565
REMARK  230  A    between atoms: _567  and  _569
REMARK  231  A    between atoms: _569  and  _570
REMARK  232  A    between atoms: _569  and  _572
REMARK  233  A    between atoms: _572  and  _573
REMARK  234  A    between atoms: _576  and  _578
REMARK  235  A    between atoms: _578  and  _579
REMARK  236  A    between atoms: _581  and  _583
REMARK  237  A    between atoms: _583  and  _584
REMARK  238  A    between atoms: _583  and  _586
REMARK  239  A    between atoms: _586  and  _587
REMARK  240  A    between atoms: _592  and  _594
REMARK  241  A    between atoms: _594  and  _595
REMARK  242  A    between atoms: _594  and  _597
REMARK  243  A    between atoms: _597  and  _598
REMARK  244  A    between atoms: _598  and  _599
REMARK  245  A    between atoms: _606  and  _607
REMARK  246  A    between atoms: _607  and  _623
REMARK  247  A    between atoms: _608  and  _610
REMARK  248  A    between atoms: _610  and  _611
REMARK  249  A    between atoms: _611  and  _612
REMARK  250  A    between atoms: _616  and  _618
REMARK  251  A    between atoms: _618  and  _619
REMARK  252  A    between atoms: _618  and  _626
REMARK  253  A    between atoms: _619  and  _620
REMARK  254  A    between atoms: _620  and  _621
REMARK  255  A    between atoms: _621  and  _622
REMARK  256  A    between atoms: _622  and  _623
REMARK  257  A    between atoms: _628  and  _630
REMARK  258  A    between atoms: _630  and  _631
REMARK  259  A    between atoms: _630  and  _633
REMARK  260  A    between atoms: _633  and  _634
REMARK  261  A    between atoms: _637  and  _639
REMARK  262  A    between atoms: _639  and  _640
REMARK  263  A    between atoms: _642  and  _644
REMARK  264  A    between atoms: _644  and  _645
REMARK  265  A    between atoms: _648  and  _650
REMARK  266  A    between atoms: _650  and  _651
REMARK  267  A    between atoms: _650  and  _653
REMARK  268  A    between atoms: _653  and  _654
REMARK  269  A    between atoms: _659  and  _660
REMARK                            x       y       z     vdW  Elec       q    Type
REMARK                         _______ _______ _______ _____ _____    ______ ____
ROOT
ATOM      1  O   HOH     1      26.611  19.074  28.611  0.00  0.00    +0.000 OA
ENDROOT
TORSDOF 0
REMARK  Name = ../refined-set-2016/2pyi/2pyi_pocket.pdb
REMARK  269 active torsions:
REMARK  status: ('A' for Active; 'I' for Inactive)
REMARK    1  A    between atoms: _1  and  _3
REMARK    2  A    between atoms: _3  and  _4
REMARK    3  A    between atoms: _3  and  _6
REMARK    4  A    between atoms: _6  and  _7
REMARK    5  A    between atoms: _12  and  _13
REMARK    6  A    between atoms: _15  and  _17
REMARK    7  A    between atoms: _17  and  _18
REMARK    8  A    between atoms: _17  and  _20
REMARK    9  A    between atoms: _20  and  _21
REMARK   10  A    between atoms: _21  and  _22
REMARK   11  A    between atoms: _25  and  _27
REMARK   12  A    between atoms: _27  and  _28
REMARK   13  A    between atoms: _27  and  _30
REMARK   14  A    between atoms: _30  and  _31
REMARK   15  A    between atoms: _36  and  _38
REMARK   16  A    between atoms: _38  and  _39
REMARK   17  A    between atoms: _41  and  _43
REMARK   18  A    between atoms: _43  and  _44
REMARK   19  A    between atoms: _46  and  _48
REMARK   20  A    between atoms: _48  and  _49
REMARK   21  A    between atoms: _48  and  _51
REMARK   22  A    between atoms: _51  and  _52
REMARK   23  A    between atoms: _55  and  _57
REMARK   24  A    between atoms: _57  and  _58
REMARK   25  A    between atoms: _60  and  _62
REMARK   26  A    between atoms: _62  and  _63
REMARK   27  A    between atoms: _62  and  _65
REMARK   28  A    between atoms: _65  and  _66
REMARK   29  A    between atoms: _66  and  _67
REMARK   30  A    between atoms: _67  and  _68
REMARK   31  A    between atoms: _77  and  _79
REMARK   32  A    between atoms: _79  and  _80
REMARK   33  A    between atoms: _79  and  _82
REMARK   34  A    between atoms: _82  and  _83
REMARK   35  A    between atoms: _86  and  _88
REMARK   36  A    between atoms: _88  and  _89
REMARK   37  A    between atoms: _92  and  _94
REMARK   38  A    between atoms: _94  and  _95
REMARK   39  A    between atoms: _94  and  _97
REMARK   40  A    between atoms: _97  and  _98
REMARK   41  A    between atoms: _104  and  _106
REMARK   42  A    between atoms: _106  and  _107
REMARK   43  A    between atoms: _106  and  _109
REMARK   44  A    between atoms: _109  and  _110
REMARK   45  A    between atoms: _115  and  _116
REMARK   46  A    between atoms: _119  and  _120
REMARK   47  A    between atoms: _125  and  _127
REMARK   48  A    between atoms: _127  and  _128
REMARK   49  A    between atoms: _127  and  _130
REMARK   50  A    between atoms: _130  and  _131
REMARK   51  A    between atoms: _136  and  _138
REMARK   52  A    between atoms: _138  and  _139
REMARK   53  A    between atoms: _138  and  _141
REMARK   54  A    between atoms: _141  and  _142
REMARK   55  A    between atoms: _145  and  _147
REMARK   56  A    between atoms: _147  and  _148
REMARK   57  A    between atoms: _147  and  _150
REMARK   58  A    between atoms: _150  and  _151
REMARK   59  A    between atoms: _156  and  _158
REMARK   60  A    between atoms: _158  and  _159
REMARK   61  A    between atoms: _158  and  _161
REMARK   62  A    between atoms: _161  and  _162
REMARK   63  A    between atoms: _168  and  _170
REMARK   64  A    between atoms: _170  and  _171
REMARK   65  A    between atoms: _170  and  _173
REMARK   66  A    between atoms: _173  and  _174
REMARK   67  A    between atoms: _180  and  _182
REMARK   68  A    between atoms: _182  and  _183
REMARK   69  A    between atoms: _182  and  _185
REMARK   70  A    between atoms: _185  and  _186
REMARK   71  A    between atoms: _186  and  _187
REMARK   72  A    between atoms: _190  and  _192
REMARK   73  A    between atoms: _192  and  _193
REMARK   74  A    between atoms: _195  and  _197
REMARK   75  A    between atoms: _197  and  _198
REMARK   76  A    between atoms: _197  and  _200
REMARK   77  A    between atoms: _200  and  _201
REMARK   78  A    between atoms: _201  and  _202
REMARK   79  A    between atoms: _202  and  _203
REMARK   80  A    between atoms: _203  and  _204
REMARK   81  A    between atoms: _208  and  _210
REMARK   82  A    between atoms: _210  and  _211
REMARK   83  A    between atoms: _210  and  _213
REMARK   84  A    between atoms: _213  and  _214
REMARK   85  A    between atoms: _214  and  _215
REMARK   86  A    between atoms: _215  and  _216
REMARK   87  A    between atoms: _225  and  _227
REMARK   88  A    between atoms: _227  and  _228
REMARK   89  A    between atoms: _227  and  _230
REMARK   90  A    between atoms: _230  and  _231
REMARK   91  A    between atoms: _231  and  _232
REMARK   92  A    between atoms: _235  and  _237
REMARK   93  A    between atoms: _237  and  _238
REMARK   94  A    between atoms: _237  and  _240
REMARK   95  A    between atoms: _240  and  _241
REMARK   96  A    between atoms: _246  and  _248
REMARK   97  A    between atoms: _248  and  _249
REMARK   98  A    between atoms: _248  and  _251
REMARK   99  A    between atoms: _251  and  _252
REMARK  100  A    between atoms: _255  and  _257
REMARK  101  A    between atoms: _257  and  _258
REMARK  102  A    between atoms: _257  and  _260
REMARK  103  A    between atoms: _260  and  _261
REMARK  104  A    between atoms: _264  and  _266
REMARK  105  A    between atoms: _266  and  _267
REMARK  106  A    between atoms: _266  and  _269
REMARK  107  A    between atoms: _269  and  _270
REMARK  108  A    between atoms: _275  and  _277
REMARK  109  A    between atoms: _277  and  _278
REMARK  110  A    between atoms: _277  and  _280
REMARK  111  A    between atoms: _280  and  _281
REMARK  112  A    between atoms: _284  and  _286
REMARK  113  A    between atoms: _286  and  _287
REMARK  114  A    between atoms: _286  and  _289
REMARK  115  A    between atoms: _289  and  _290
REMARK  116  A    between atoms: _295  and  _297
REMARK  117  A    between atoms: _297  and  _298
REMARK  118  A    between atoms: _297  and  _300
REMARK  119  A    between atoms: _300  and  _301
REMARK  120  A    between atoms: _306  and  _308
REMARK  121  A    between atoms: _308  and  _309
REMARK  122  A    between atoms: _308  and  _311
REMARK  123  A    between atoms: _311  and  _312
REMARK  124  A    between atoms: _315  and  _317
REMARK  125  A    between atoms: _317  and  _318
REMARK  126  A    between atoms: _317  and  _320
REMARK  127  A    between atoms: _323  and  _325
REMARK  128  A    between atoms: _325  and  _326
REMARK  129  A    between atoms: _325  and  _328
REMARK  130  A    between atoms: _328  and  _329
REMARK  131  A    between atoms: _333  and  _334
REMARK  132  A    between atoms: _339  and  _341
REMARK  133  A    between atoms: _341  and  _342
REMARK  134  A    between atoms: _341  and  _344
REMARK  135  A    between atoms: _344  and  _345
REMARK  136  A    between atoms: _345  and  _346
REMARK  137  A    between atoms: _349  and  _351
REMARK  138  A    between atoms: _351  and  _352
REMARK  139  A    between atoms: _355  and  _357
REMARK  140  A    between atoms: _357  and  _358
REMARK  141  A    between atoms: _357  and  _360
REMARK  142  A    between atoms: _360  and  _361
REMARK  143  A    between atoms: _364  and  _366
REMARK  144  A    between atoms: _366  and  _367
REMARK  145  A    between atoms: _366  and  _369
REMARK  146  A    between atoms: _369  and  _370
REMARK  147  A    between atoms: _370  and  _371
REMARK  148  A    between atoms: _374  and  _376
REMARK  149  A    between atoms: _376  and  _377
REMARK  150  A    between atoms: _376  and  _379
REMARK  151  A    between atoms: _379  and  _380
REMARK  152  A    between atoms: _385  and  _387
REMARK  153  A    between atoms: _387  and  _388
REMARK  154  A    between atoms: _390  and  _392
REMARK  155  A    between atoms: _392  and  _393
REMARK  156  A    between atoms: _392  and  _395
REMARK  157  A    between atoms: _398  and  _400
REMARK  158  A    between atoms: _400  and  _401
REMARK  159  A    between atoms: _404  and  _406
REMARK  160  A    between atoms: _406  and  _407
REMARK  161  A    between atoms: _406  and  _409
REMARK  162  A    between atoms: _409  and  _410
REMARK  163  A    between atoms: _415  and  _417
REMARK  164  A    between atoms: _417  and  _418
REMARK  165  A    between atoms: _417  and  _420
REMARK  166  A    between atoms: _420  and  _421
REMARK  167  A    between atoms: _421  and  _422
REMARK  168  A    between atoms: _422  and  _423
REMARK  169  A    between atoms: _423  and  _424
REMARK  170  A    between atoms: _428  and  _430
REMARK  171  A    between atoms: _430  and  _431
REMARK  172  A    between atoms: _430  and  _433
REMARK  173  A    between atoms: _433  and  _434
REMARK  174  A    between atoms: _437  and  _439
REMARK  175  A    between atoms: _439  and  _440
REMARK  176  A    between atoms: _439  and  _442
REMARK  177  A    between atoms: _442  and  _443
REMARK  178  A    between atoms: _448  and  _450
REMARK  179  A    between atoms: _450  and  _451
REMARK  180  A    between atoms: _453  and  _455
REMARK  181  A    between atoms: _455  and  _456
REMARK  182  A    between atoms: _455  and  _458
REMARK  183  A    between atoms: _458  and  _459
REMARK  184  A    between atoms: _459  and  _460
REMARK  185  A    between atoms: _460  and  _461
REMARK  186  A    between atoms: _461  and  _462
REMARK  187  A    between atoms: _466  and  _468
REMARK  188  A    between atoms: _468  and  _469
REMARK  189  A    between atoms: _468  and  _471
REMARK  190  A    between atoms: _471  and  _472
REMARK  191  A    between atoms: _472  and  _473
REMARK  192  A    between atoms: _473  and  _474
REMARK  193  A    between atoms: _483  and  _485
REMARK  194  A    between atoms: _485  and  _486
REMARK  195  A    between atoms: _485  and  _488
REMARK  196  A    between atoms: _488  and  _489
REMARK  197  A    between atoms: _494  and  _496
REMARK  198  A    between atoms: _496  and  _497
REMARK  199  A    between atoms: _496  and  _499
REMARK  200  A    between atoms: _499  and  _500
REMARK  201  A    between atoms: _505  and  _506
REMARK  202  A    between atoms: _508  and  _510
REMARK  203  A    between atoms: _510  and  _511
REMARK  204  A    between atoms: _510  and  _513
REMARK  205  A    between atoms: _513  and  _514
REMARK  206  A    between atoms: _514  and  _515
REMARK  207  A    between atoms: _515  and  _516
REMARK  208  A    between atoms: _516  and  _517
REMARK  209  A    between atoms: _521  and  _523
REMARK  210  A    between atoms: _523  and  _524
REMARK  211  A    between atoms: _523  and  _526
REMARK  212  A    between atoms: _526  and  _527
REMARK  213  A    between atoms: _529  and  _531
REMARK  214  A    between atoms: _531  and  _532
REMARK  215  A    between atoms: _531  and  _534
REMARK  216  A    between atoms: _534  and  _535
REMARK  217  A    between atoms: _538  and  _540
REMARK  218  A    between atoms: _540  and  _541
REMARK  219  A    between atoms: _540  and  _543
REMARK  220  A    between atoms: _543  and  _544
REMARK  221  A    between atoms: _544  and  _545
REMARK  222  A    between atoms: _548  and  _550
REMARK  223  A    between atoms: _550  and  _551
REMARK  224  A    between atoms: _554  and  _556
REMARK  225  A    between atoms: _556  and  _557
REMARK  226  A    between atoms: _556  and  _559
REMARK  227  A    between atoms: _559  and  _560
REMARK  228  A    between atoms: _562  and  _564
REMARK  229  A    between atoms: _564  and  _565
REMARK  230  A    between atoms: _567  and  _569
REMARK  231  A    between atoms: _569  and  _570
REMARK  232  A    between atoms: _569  and  _572
REMARK  233  A    between atoms: _572  and  _573
REMARK  234  A    between atoms: _576  and  _578
REMARK  235  A    between atoms: _578  and  _579
REMARK  236  A    between atoms: _581  and  _583
REMARK  237  A    between atoms: _583  and  _584
REMARK  238  A    between atoms: _583  and  _586
REMARK  239  A    between atoms: _586  and  _587
REMARK  240  A    between atoms: _592  and  _594
REMARK  241  A    between atoms: _594  and  _595
REMARK  242  A    between atoms: _594  and  _597
REMARK  243  A    between atoms: _597  and  _598
REMARK  244  A    between atoms: _598  and  _599
REMARK  245  A    between atoms: _606  and  _607
REMARK  246  A    between atoms: _607  and  _623
REMARK  247  A    between atoms: _608  and  _610
REMARK  248  A    between atoms: _610  and  _611
REMARK  249  A    between atoms: _611  and  _612
REMARK  250  A    between atoms: _616  and  _618
REMARK  251  A    between atoms: _618  and  _619
REMARK  252  A    between atoms: _618  and  _626
REMARK  253  A    between atoms: _619  and  _620
REMARK  254  A    between atoms: _620  and  _621
REMARK  255  A    between atoms: _621  and  _622
REMARK  256  A    between atoms: _622  and  _623
REMARK  257  A    between atoms: _628  and  _630
REMARK  258  A    between atoms: _630  and  _631
REMARK  259  A    between atoms: _630  and  _633
REMARK  260  A    between atoms: _633  and  _634
REMARK  261  A    between atoms: _637  and  _639
REMARK  262  A    between atoms: _639  and  _640
REMARK  263  A    between atoms: _642  and  _644
REMARK  264  A    between atoms: _644  and  _645
REMARK  265  A    between atoms: _648  and  _650
REMARK  266  A    between atoms: _650  and  _651
REMARK  267  A    between atoms: _650  and  _653
REMARK  268  A    between atoms: _653  and  _654
REMARK  269  A    between atoms: _659  and  _660
REMARK                            x       y       z     vdW  Elec       q    Type
REMARK                         _______ _______ _______ _____ _____    ______ ____
ROOT
ATOM      1  O   HOH     1      34.952  12.221  30.803  0.00  0.00    +0.000 OA
ENDROOT
TORSDOF 0
REMARK  Name = ../refined-set-2016/2pyi/2pyi_pocket.pdb
REMARK  269 active torsions:
REMARK  status: ('A' for Active; 'I' for Inactive)
REMARK    1  A    between atoms: _1  and  _3
REMARK    2  A    between atoms: _3  and  _4
REMARK    3  A    between atoms: _3  and  _6
REMARK    4  A    between atoms: _6  and  _7
REMARK    5  A    between atoms: _12  and  _13
REMARK    6  A    between atoms: _15  and  _17
REMARK    7  A    between atoms: _17  and  _18
REMARK    8  A    between atoms: _17  and  _20
REMARK    9  A    between atoms: _20  and  _21
REMARK   10  A    between atoms: _21  and  _22
REMARK   11  A    between atoms: _25  and  _27
REMARK   12  A    between atoms: _27  and  _28
REMARK   13  A    between atoms: _27  and  _30
REMARK   14  A    between atoms: _30  and  _31
REMARK   15  A    between atoms: _36  and  _38
REMARK   16  A    between atoms: _38  and  _39
REMARK   17  A    between atoms: _41  and  _43
REMARK   18  A    between atoms: _43  and  _44
REMARK   19  A    between atoms: _46  and  _48
REMARK   20  A    between atoms: _48  and  _49
REMARK   21  A    between atoms: _48  and  _51
REMARK   22  A    between atoms: _51  and  _52
REMARK   23  A    between atoms: _55  and  _57
REMARK   24  A    between atoms: _57  and  _58
REMARK   25  A    between atoms: _60  and  _62
REMARK   26  A    between atoms: _62  and  _63
REMARK   27  A    between atoms: _62  and  _65
REMARK   28  A    between atoms: _65  and  _66
REMARK   29  A    between atoms: _66  and  _67
REMARK   30  A    between atoms: _67  and  _68
REMARK   31  A    between atoms: _77  and  _79
REMARK   32  A    between atoms: _79  and  _80
REMARK   33  A    between atoms: _79  and  _82
REMARK   34  A    between atoms: _82  and  _83
REMARK   35  A    between atoms: _86  and  _88
REMARK   36  A    between atoms: _88  and  _89
REMARK   37  A    between atoms: _92  and  _94
REMARK   38  A    between atoms: _94  and  _95
REMARK   39  A    between atoms: _94  and  _97
REMARK   40  A    between atoms: _97  and  _98
REMARK   41  A    between atoms: _104  and  _106
REMARK   42  A    between atoms: _106  and  _107
REMARK   43  A    between atoms: _106  and  _109
REMARK   44  A    between atoms: _109  and  _110
REMARK   45  A    between atoms: _115  and  _116
REMARK   46  A    between atoms: _119  and  _120
REMARK   47  A    between atoms: _125  and  _127
REMARK   48  A    between atoms: _127  and  _128
REMARK   49  A    between atoms: _127  and  _130
REMARK   50  A    between atoms: _130  and  _131
REMARK   51  A    between atoms: _136  and  _138
REMARK   52  A    between atoms: _138  and  _139
REMARK   53  A    between atoms: _138  and  _141
REMARK   54  A    between atoms: _141  and  _142
REMARK   55  A    between atoms: _145  and  _147
REMARK   56  A    between atoms: _147  and  _148
REMARK   57  A    between atoms: _147  and  _150
REMARK   58  A    between atoms: _150  and  _151
REMARK   59  A    between atoms: _156  and  _158
REMARK   60  A    between atoms: _158  and  _159
REMARK   61  A    between atoms: _158  and  _161
REMARK   62  A    between atoms: _161  and  _162
REMARK   63  A    between atoms: _168  and  _170
REMARK   64  A    between atoms: _170  and  _171
REMARK   65  A    between atoms: _170  and  _173
REMARK   66  A    between atoms: _173  and  _174
REMARK   67  A    between atoms: _180  and  _182
REMARK   68  A    between atoms: _182  and  _183
REMARK   69  A    between atoms: _182  and  _185
REMARK   70  A    between atoms: _185  and  _186
REMARK   71  A    between atoms: _186  and  _187
REMARK   72  A    between atoms: _190  and  _192
REMARK   73  A    between atoms: _192  and  _193
REMARK   74  A    between atoms: _195  and  _197
REMARK   75  A    between atoms: _197  and  _198
REMARK   76  A    between atoms: _197  and  _200
REMARK   77  A    between atoms: _200  and  _201
REMARK   78  A    between atoms: _201  and  _202
REMARK   79  A    between atoms: _202  and  _203
REMARK   80  A    between atoms: _203  and  _204
REMARK   81  A    between atoms: _208  and  _210
REMARK   82  A    between atoms: _210  and  _211
REMARK   83  A    between atoms: _210  and  _213
REMARK   84  A    between atoms: _213  and  _214
REMARK   85  A    between atoms: _214  and  _215
REMARK   86  A    between atoms: _215  and  _216
REMARK   87  A    between atoms: _225  and  _227
REMARK   88  A    between atoms: _227  and  _228
REMARK   89  A    between atoms: _227  and  _230
REMARK   90  A    between atoms: _230  and  _231
REMARK   91  A    between atoms: _231  and  _232
REMARK   92  A    between atoms: _235  and  _237
REMARK   93  A    between atoms: _237  and  _238
REMARK   94  A    between atoms: _237  and  _240
REMARK   95  A    between atoms: _240  and  _241
REMARK   96  A    between atoms: _246  and  _248
REMARK   97  A    between atoms: _248  and  _249
REMARK   98  A    between atoms: _248  and  _251
REMARK   99  A    between atoms: _251  and  _252
REMARK  100  A    between atoms: _255  and  _257
REMARK  101  A    between atoms: _257  and  _258
REMARK  102  A    between atoms: _257  and  _260
REMARK  103  A    between atoms: _260  and  _261
REMARK  104  A    between atoms: _264  and  _266
REMARK  105  A    between atoms: _266  and  _267
REMARK  106  A    between atoms: _266  and  _269
REMARK  107  A    between atoms: _269  and  _270
REMARK  108  A    between atoms: _275  and  _277
REMARK  109  A    between atoms: _277  and  _278
REMARK  110  A    between atoms: _277  and  _280
REMARK  111  A    between atoms: _280  and  _281
REMARK  112  A    between atoms: _284  and  _286
REMARK  113  A    between atoms: _286  and  _287
REMARK  114  A    between atoms: _286  and  _289
REMARK  115  A    between atoms: _289  and  _290
REMARK  116  A    between atoms: _295  and  _297
REMARK  117  A    between atoms: _297  and  _298
REMARK  118  A    between atoms: _297  and  _300
REMARK  119  A    between atoms: _300  and  _301
REMARK  120  A    between atoms: _306  and  _308
REMARK  121  A    between atoms: _308  and  _309
REMARK  122  A    between atoms: _308  and  _311
REMARK  123  A    between atoms: _311  and  _312
REMARK  124  A    between atoms: _315  and  _317
REMARK  125  A    between atoms: _317  and  _318
REMARK  126  A    between atoms: _317  and  _320
REMARK  127  A    between atoms: _323  and  _325
REMARK  128  A    between atoms: _325  and  _326
REMARK  129  A    between atoms: _325  and  _328
REMARK  130  A    between atoms: _328  and  _329
REMARK  131  A    between atoms: _333  and  _334
REMARK  132  A    between atoms: _339  and  _341
REMARK  133  A    between atoms: _341  and  _342
REMARK  134  A    between atoms: _341  and  _344
REMARK  135  A    between atoms: _344  and  _345
REMARK  136  A    between atoms: _345  and  _346
REMARK  137  A    between atoms: _349  and  _351
REMARK  138  A    between atoms: _351  and  _352
REMARK  139  A    between atoms: _355  and  _357
REMARK  140  A    between atoms: _357  and  _358
REMARK  141  A    between atoms: _357  and  _360
REMARK  142  A    between atoms: _360  and  _361
REMARK  143  A    between atoms: _364  and  _366
REMARK  144  A    between atoms: _366  and  _367
REMARK  145  A    between atoms: _366  and  _369
REMARK  146  A    between atoms: _369  and  _370
REMARK  147  A    between atoms: _370  and  _371
REMARK  148  A    between atoms: _374  and  _376
REMARK  149  A    between atoms: _376  and  _377
REMARK  150  A    between atoms: _376  and  _379
REMARK  151  A    between atoms: _379  and  _380
REMARK  152  A    between atoms: _385  and  _387
REMARK  153  A    between atoms: _387  and  _388
REMARK  154  A    between atoms: _390  and  _392
REMARK  155  A    between atoms: _392  and  _393
REMARK  156  A    between atoms: _392  and  _395
REMARK  157  A    between atoms: _398  and  _400
REMARK  158  A    between atoms: _400  and  _401
REMARK  159  A    between atoms: _404  and  _406
REMARK  160  A    between atoms: _406  and  _407
REMARK  161  A    between atoms: _406  and  _409
REMARK  162  A    between atoms: _409  and  _410
REMARK  163  A    between atoms: _415  and  _417
REMARK  164  A    between atoms: _417  and  _418
REMARK  165  A    between atoms: _417  and  _420
REMARK  166  A    between atoms: _420  and  _421
REMARK  167  A    between atoms: _421  and  _422
REMARK  168  A    between atoms: _422  and  _423
REMARK  169  A    between atoms: _423  and  _424
REMARK  170  A    between atoms: _428  and  _430
REMARK  171  A    between atoms: _430  and  _431
REMARK  172  A    between atoms: _430  and  _433
REMARK  173  A    between atoms: _433  and  _434
REMARK  174  A    between atoms: _437  and  _439
REMARK  175  A    between atoms: _439  and  _440
REMARK  176  A    between atoms: _439  and  _442
REMARK  177  A    between atoms: _442  and  _443
REMARK  178  A    between atoms: _448  and  _450
REMARK  179  A    between atoms: _450  and  _451
REMARK  180  A    between atoms: _453  and  _455
REMARK  181  A    between atoms: _455  and  _456
REMARK  182  A    between atoms: _455  and  _458
REMARK  183  A    between atoms: _458  and  _459
REMARK  184  A    between atoms: _459  and  _460
REMARK  185  A    between atoms: _460  and  _461
REMARK  186  A    between atoms: _461  and  _462
REMARK  187  A    between atoms: _466  and  _468
REMARK  188  A    between atoms: _468  and  _469
REMARK  189  A    between atoms: _468  and  _471
REMARK  190  A    between atoms: _471  and  _472
REMARK  191  A    between atoms: _472  and  _473
REMARK  192  A    between atoms: _473  and  _474
REMARK  193  A    between atoms: _483  and  _485
REMARK  194  A    between atoms: _485  and  _486
REMARK  195  A    between atoms: _485  and  _488
REMARK  196  A    between atoms: _488  and  _489
REMARK  197  A    between atoms: _494  and  _496
REMARK  198  A    between atoms: _496  and  _497
REMARK  199  A    between atoms: _496  and  _499
REMARK  200  A    between atoms: _499  and  _500
REMARK  201  A    between atoms: _505  and  _506
REMARK  202  A    between atoms: _508  and  _510
REMARK  203  A    between atoms: _510  and  _511
REMARK  204  A    between atoms: _510  and  _513
REMARK  205  A    between atoms: _513  and  _514
REMARK  206  A    between atoms: _514  and  _515
REMARK  207  A    between atoms: _515  and  _516
REMARK  208  A    between atoms: _516  and  _517
REMARK  209  A    between atoms: _521  and  _523
REMARK  210  A    between atoms: _523  and  _524
REMARK  211  A    between atoms: _523  and  _526
REMARK  212  A    between atoms: _526  and  _527
REMARK  213  A    between atoms: _529  and  _531
REMARK  214  A    between atoms: _531  and  _532
REMARK  215  A    between atoms: _531  and  _534
REMARK  216  A    between atoms: _534  and  _535
REMARK  217  A    between atoms: _538  and  _540
REMARK  218  A    between atoms: _540  and  _541
REMARK  219  A    between atoms: _540  and  _543
REMARK  220  A    between atoms: _543  and  _544
REMARK  221  A    between atoms: _544  and  _545
REMARK  222  A    between atoms: _548  and  _550
REMARK  223  A    between atoms: _550  and  _551
REMARK  224  A    between atoms: _554  and  _556
REMARK  225  A    between atoms: _556  and  _557
REMARK  226  A    between atoms: _556  and  _559
REMARK  227  A    between atoms: _559  and  _560
REMARK  228  A    between atoms: _562  and  _564
REMARK  229  A    between atoms: _564  and  _565
REMARK  230  A    between atoms: _567  and  _569
REMARK  231  A    between atoms: _569  and  _570
REMARK  232  A    between atoms: _569  and  _572
REMARK  233  A    between atoms: _572  and  _573
REMARK  234  A    between atoms: _576  and  _578
REMARK  235  A    between atoms: _578  and  _579
REMARK  236  A    between atoms: _581  and  _583
REMARK  237  A    between atoms: _583  and  _584
REMARK  238  A    between atoms: _583  and  _586
REMARK  239  A    between atoms: _586  and  _587
REMARK  240  A    between atoms: _592  and  _594
REMARK  241  A    between atoms: _594  and  _595
REMARK  242  A    between atoms: _594  and  _597
REMARK  243  A    between atoms: _597  and  _598
REMARK  244  A    between atoms: _598  and  _599
REMARK  245  A    between atoms: _606  and  _607
REMARK  246  A    between atoms: _607  and  _623
REMARK  247  A    between atoms: _608  and  _610
REMARK  248  A    between atoms: _610  and  _611
REMARK  249  A    between atoms: _611  and  _612
REMARK  250  A    between atoms: _616  and  _618
REMARK  251  A    between atoms: _618  and  _619
REMARK  252  A    between atoms: _618  and  _626
REMARK  253  A    between atoms: _619  and  _620
REMARK  254  A    between atoms: _620  and  _621
REMARK  255  A    between atoms: _621  and  _622
REMARK  256  A    between atoms: _622  and  _623
REMARK  257  A    between atoms: _628  and  _630
REMARK  258  A    between atoms: _630  and  _631
REMARK  259  A    between atoms: _630  and  _633
REMARK  260  A    between atoms: _633  and  _634
REMARK  261  A    between atoms: _637  and  _639
REMARK  262  A    between atoms: _639  and  _640
REMARK  263  A    between atoms: _642  and  _644
REMARK  264  A    between atoms: _644  and  _645
REMARK  265  A    between atoms: _648  and  _650
REMARK  266  A    between atoms: _650  and  _651
REMARK  267  A    between atoms: _650  and  _653
REMARK  268  A    between atoms: _653  and  _654
REMARK  269  A    between atoms: _659  and  _660
REMARK                            x       y       z     vdW  Elec       q    Type
REMARK                         _______ _______ _______ _____ _____    ______ ____
ROOT
ATOM      1  O   HOH     1      36.224  18.940  36.679  0.00  0.00    +0.000 OA
ENDROOT
TORSDOF 0
REMARK  Name = ../refined-set-2016/2pyi/2pyi_pocket.pdb
REMARK  269 active torsions:
REMARK  status: ('A' for Active; 'I' for Inactive)
REMARK    1  A    between atoms: _1  and  _3
REMARK    2  A    between atoms: _3  and  _4
REMARK    3  A    between atoms: _3  and  _6
REMARK    4  A    between atoms: _6  and  _7
REMARK    5  A    between atoms: _12  and  _13
REMARK    6  A    between atoms: _15  and  _17
REMARK    7  A    between atoms: _17  and  _18
REMARK    8  A    between atoms: _17  and  _20
REMARK    9  A    between atoms: _20  and  _21
REMARK   10  A    between atoms: _21  and  _22
REMARK   11  A    between atoms: _25  and  _27
REMARK   12  A    between atoms: _27  and  _28
REMARK   13  A    between atoms: _27  and  _30
REMARK   14  A    between atoms: _30  and  _31
REMARK   15  A    between atoms: _36  and  _38
REMARK   16  A    between atoms: _38  and  _39
REMARK   17  A    between atoms: _41  and  _43
REMARK   18  A    between atoms: _43  and  _44
REMARK   19  A    between atoms: _46  and  _48
REMARK   20  A    between atoms: _48  and  _49
REMARK   21  A    between atoms: _48  and  _51
REMARK   22  A    between atoms: _51  and  _52
REMARK   23  A    between atoms: _55  and  _57
REMARK   24  A    between atoms: _57  and  _58
REMARK   25  A    between atoms: _60  and  _62
REMARK   26  A    between atoms: _62  and  _63
REMARK   27  A    between atoms: _62  and  _65
REMARK   28  A    between atoms: _65  and  _66
REMARK   29  A    between atoms: _66  and  _67
REMARK   30  A    between atoms: _67  and  _68
REMARK   31  A    between atoms: _77  and  _79
REMARK   32  A    between atoms: _79  and  _80
REMARK   33  A    between atoms: _79  and  _82
REMARK   34  A    between atoms: _82  and  _83
REMARK   35  A    between atoms: _86  and  _88
REMARK   36  A    between atoms: _88  and  _89
REMARK   37  A    between atoms: _92  and  _94
REMARK   38  A    between atoms: _94  and  _95
REMARK   39  A    between atoms: _94  and  _97
REMARK   40  A    between atoms: _97  and  _98
REMARK   41  A    between atoms: _104  and  _106
REMARK   42  A    between atoms: _106  and  _107
REMARK   43  A    between atoms: _106  and  _109
REMARK   44  A    between atoms: _109  and  _110
REMARK   45  A    between atoms: _115  and  _116
REMARK   46  A    between atoms: _119  and  _120
REMARK   47  A    between atoms: _125  and  _127
REMARK   48  A    between atoms: _127  and  _128
REMARK   49  A    between atoms: _127  and  _130
REMARK   50  A    between atoms: _130  and  _131
REMARK   51  A    between atoms: _136  and  _138
REMARK   52  A    between atoms: _138  and  _139
REMARK   53  A    between atoms: _138  and  _141
REMARK   54  A    between atoms: _141  and  _142
REMARK   55  A    between atoms: _145  and  _147
REMARK   56  A    between atoms: _147  and  _148
REMARK   57  A    between atoms: _147  and  _150
REMARK   58  A    between atoms: _150  and  _151
REMARK   59  A    between atoms: _156  and  _158
REMARK   60  A    between atoms: _158  and  _159
REMARK   61  A    between atoms: _158  and  _161
REMARK   62  A    between atoms: _161  and  _162
REMARK   63  A    between atoms: _168  and  _170
REMARK   64  A    between atoms: _170  and  _171
REMARK   65  A    between atoms: _170  and  _173
REMARK   66  A    between atoms: _173  and  _174
REMARK   67  A    between atoms: _180  and  _182
REMARK   68  A    between atoms: _182  and  _183
REMARK   69  A    between atoms: _182  and  _185
REMARK   70  A    between atoms: _185  and  _186
REMARK   71  A    between atoms: _186  and  _187
REMARK   72  A    between atoms: _190  and  _192
REMARK   73  A    between atoms: _192  and  _193
REMARK   74  A    between atoms: _195  and  _197
REMARK   75  A    between atoms: _197  and  _198
REMARK   76  A    between atoms: _197  and  _200
REMARK   77  A    between atoms: _200  and  _201
REMARK   78  A    between atoms: _201  and  _202
REMARK   79  A    between atoms: _202  and  _203
REMARK   80  A    between atoms: _203  and  _204
REMARK   81  A    between atoms: _208  and  _210
REMARK   82  A    between atoms: _210  and  _211
REMARK   83  A    between atoms: _210  and  _213
REMARK   84  A    between atoms: _213  and  _214
REMARK   85  A    between atoms: _214  and  _215
REMARK   86  A    between atoms: _215  and  _216
REMARK   87  A    between atoms: _225  and  _227
REMARK   88  A    between atoms: _227  and  _228
REMARK   89  A    between atoms: _227  and  _230
REMARK   90  A    between atoms: _230  and  _231
REMARK   91  A    between atoms: _231  and  _232
REMARK   92  A    between atoms: _235  and  _237
REMARK   93  A    between atoms: _237  and  _238
REMARK   94  A    between atoms: _237  and  _240
REMARK   95  A    between atoms: _240  and  _241
REMARK   96  A    between atoms: _246  and  _248
REMARK   97  A    between atoms: _248  and  _249
REMARK   98  A    between atoms: _248  and  _251
REMARK   99  A    between atoms: _251  and  _252
REMARK  100  A    between atoms: _255  and  _257
REMARK  101  A    between atoms: _257  and  _258
REMARK  102  A    between atoms: _257  and  _260
REMARK  103  A    between atoms: _260  and  _261
REMARK  104  A    between atoms: _264  and  _266
REMARK  105  A    between atoms: _266  and  _267
REMARK  106  A    between atoms: _266  and  _269
REMARK  107  A    between atoms: _269  and  _270
REMARK  108  A    between atoms: _275  and  _277
REMARK  109  A    between atoms: _277  and  _278
REMARK  110  A    between atoms: _277  and  _280
REMARK  111  A    between atoms: _280  and  _281
REMARK  112  A    between atoms: _284  and  _286
REMARK  113  A    between atoms: _286  and  _287
REMARK  114  A    between atoms: _286  and  _289
REMARK  115  A    between atoms: _289  and  _290
REMARK  116  A    between atoms: _295  and  _297
REMARK  117  A    between atoms: _297  and  _298
REMARK  118  A    between atoms: _297  and  _300
REMARK  119  A    between atoms: _300  and  _301
REMARK  120  A    between atoms: _306  and  _308
REMARK  121  A    between atoms: _308  and  _309
REMARK  122  A    between atoms: _308  and  _311
REMARK  123  A    between atoms: _311  and  _312
REMARK  124  A    between atoms: _315  and  _317
REMARK  125  A    between atoms: _317  and  _318
REMARK  126  A    between atoms: _317  and  _320
REMARK  127  A    between atoms: _323  and  _325
REMARK  128  A    between atoms: _325  and  _326
REMARK  129  A    between atoms: _325  and  _328
REMARK  130  A    between atoms: _328  and  _329
REMARK  131  A    between atoms: _333  and  _334
REMARK  132  A    between atoms: _339  and  _341
REMARK  133  A    between atoms: _341  and  _342
REMARK  134  A    between atoms: _341  and  _344
REMARK  135  A    between atoms: _344  and  _345
REMARK  136  A    between atoms: _345  and  _346
REMARK  137  A    between atoms: _349  and  _351
REMARK  138  A    between atoms: _351  and  _352
REMARK  139  A    between atoms: _355  and  _357
REMARK  140  A    between atoms: _357  and  _358
REMARK  141  A    between atoms: _357  and  _360
REMARK  142  A    between atoms: _360  and  _361
REMARK  143  A    between atoms: _364  and  _366
REMARK  144  A    between atoms: _366  and  _367
REMARK  145  A    between atoms: _366  and  _369
REMARK  146  A    between atoms: _369  and  _370
REMARK  147  A    between atoms: _370  and  _371
REMARK  148  A    between atoms: _374  and  _376
REMARK  149  A    between atoms: _376  and  _377
REMARK  150  A    between atoms: _376  and  _379
REMARK  151  A    between atoms: _379  and  _380
REMARK  152  A    between atoms: _385  and  _387
REMARK  153  A    between atoms: _387  and  _388
REMARK  154  A    between atoms: _390  and  _392
REMARK  155  A    between atoms: _392  and  _393
REMARK  156  A    between atoms: _392  and  _395
REMARK  157  A    between atoms: _398  and  _400
REMARK  158  A    between atoms: _400  and  _401
REMARK  159  A    between atoms: _404  and  _406
REMARK  160  A    between atoms: _406  and  _407
REMARK  161  A    between atoms: _406  and  _409
REMARK  162  A    between atoms: _409  and  _410
REMARK  163  A    between atoms: _415  and  _417
REMARK  164  A    between atoms: _417  and  _418
REMARK  165  A    between atoms: _417  and  _420
REMARK  166  A    between atoms: _420  and  _421
REMARK  167  A    between atoms: _421  and  _422
REMARK  168  A    between atoms: _422  and  _423
REMARK  169  A    between atoms: _423  and  _424
REMARK  170  A    between atoms: _428  and  _430
REMARK  171  A    between atoms: _430  and  _431
REMARK  172  A    between atoms: _430  and  _433
REMARK  173  A    between atoms: _433  and  _434
REMARK  174  A    between atoms: _437  and  _439
REMARK  175  A    between atoms: _439  and  _440
REMARK  176  A    between atoms: _439  and  _442
REMARK  177  A    between atoms: _442  and  _443
REMARK  178  A    between atoms: _448  and  _450
REMARK  179  A    between atoms: _450  and  _451
REMARK  180  A    between atoms: _453  and  _455
REMARK  181  A    between atoms: _455  and  _456
REMARK  182  A    between atoms: _455  and  _458
REMARK  183  A    between atoms: _458  and  _459
REMARK  184  A    between atoms: _459  and  _460
REMARK  185  A    between atoms: _460  and  _461
REMARK  186  A    between atoms: _461  and  _462
REMARK  187  A    between atoms: _466  and  _468
REMARK  188  A    between atoms: _468  and  _469
REMARK  189  A    between atoms: _468  and  _471
REMARK  190  A    between atoms: _471  and  _472
REMARK  191  A    between atoms: _472  and  _473
REMARK  192  A    between atoms: _473  and  _474
REMARK  193  A    between atoms: _483  and  _485
REMARK  194  A    between atoms: _485  and  _486
REMARK  195  A    between atoms: _485  and  _488
REMARK  196  A    between atoms: _488  and  _489
REMARK  197  A    between atoms: _494  and  _496
REMARK  198  A    between atoms: _496  and  _497
REMARK  199  A    between atoms: _496  and  _499
REMARK  200  A    between atoms: _499  and  _500
REMARK  201  A    between atoms: _505  and  _506
REMARK  202  A    between atoms: _508  and  _510
REMARK  203  A    between atoms: _510  and  _511
REMARK  204  A    between atoms: _510  and  _513
REMARK  205  A    between atoms: _513  and  _514
REMARK  206  A    between atoms: _514  and  _515
REMARK  207  A    between atoms: _515  and  _516
REMARK  208  A    between atoms: _516  and  _517
REMARK  209  A    between atoms: _521  and  _523
REMARK  210  A    between atoms: _523  and  _524
REMARK  211  A    between atoms: _523  and  _526
REMARK  212  A    between atoms: _526  and  _527
REMARK  213  A    between atoms: _529  and  _531
REMARK  214  A    between atoms: _531  and  _532
REMARK  215  A    between atoms: _531  and  _534
REMARK  216  A    between atoms: _534  and  _535
REMARK  217  A    between atoms: _538  and  _540
REMARK  218  A    between atoms: _540  and  _541
REMARK  219  A    between atoms: _540  and  _543
REMARK  220  A    between atoms: _543  and  _544
REMARK  221  A    between atoms: _544  and  _545
REMARK  222  A    between atoms: _548  and  _550
REMARK  223  A    between atoms: _550  and  _551
REMARK  224  A    between atoms: _554  and  _556
REMARK  225  A    between atoms: _556  and  _557
REMARK  226  A    between atoms: _556  and  _559
REMARK  227  A    between atoms: _559  and  _560
REMARK  228  A    between atoms: _562  and  _564
REMARK  229  A    between atoms: _564  and  _565
REMARK  230  A    between atoms: _567  and  _569
REMARK  231  A    between atoms: _569  and  _570
REMARK  232  A    between atoms: _569  and  _572
REMARK  233  A    between atoms: _572  and  _573
REMARK  234  A    between atoms: _576  and  _578
REMARK  235  A    between atoms: _578  and  _579
REMARK  236  A    between atoms: _581  and  _583
REMARK  237  A    between atoms: _583  and  _584
REMARK  238  A    between atoms: _583  and  _586
REMARK  239  A    between atoms: _586  and  _587
REMARK  240  A    between atoms: _592  and  _594
REMARK  241  A    between atoms: _594  and  _595
REMARK  242  A    between atoms: _594  and  _597
REMARK  243  A    between atoms: _597  and  _598
REMARK  244  A    between atoms: _598  and  _599
REMARK  245  A    between atoms: _606  and  _607
REMARK  246  A    between atoms: _607  and  _623
REMARK  247  A    between atoms: _608  and  _610
REMARK  248  A    between atoms: _610  and  _611
REMARK  249  A    between atoms: _611  and  _612
REMARK  250  A    between atoms: _616  and  _618
REMARK  251  A    between atoms: _618  and  _619
REMARK  252  A    between atoms: _618  and  _626
REMARK  253  A    between atoms: _619  and  _620
REMARK  254  A    between atoms: _620  and  _621
REMARK  255  A    between atoms: _621  and  _622
REMARK  256  A    between atoms: _622  and  _623
REMARK  257  A    between atoms: _628  and  _630
REMARK  258  A    between atoms: _630  and  _631
REMARK  259  A    between atoms: _630  and  _633
REMARK  260  A    between atoms: _633  and  _634
REMARK  261  A    between atoms: _637  and  _639
REMARK  262  A    between atoms: _639  and  _640
REMARK  263  A    between atoms: _642  and  _644
REMARK  264  A    between atoms: _644  and  _645
REMARK  265  A    between atoms: _648  and  _650
REMARK  266  A    between atoms: _650  and  _651
REMARK  267  A    between atoms: _650  and  _653
REMARK  268  A    between atoms: _653  and  _654
REMARK  269  A    between atoms: _659  and  _660
REMARK                            x       y       z     vdW  Elec       q    Type
REMARK                         _______ _______ _______ _____ _____    ______ ____
ROOT
ATOM      1  O   HOH     1      27.730  27.173  27.308  0.00  0.00    +0.000 OA
ENDROOT
TORSDOF 0
REMARK  Name = ../refined-set-2016/2pyi/2pyi_pocket.pdb
REMARK  269 active torsions:
REMARK  status: ('A' for Active; 'I' for Inactive)
REMARK    1  A    between atoms: _1  and  _3
REMARK    2  A    between atoms: _3  and  _4
REMARK    3  A    between atoms: _3  and  _6
REMARK    4  A    between atoms: _6  and  _7
REMARK    5  A    between atoms: _12  and  _13
REMARK    6  A    between atoms: _15  and  _17
REMARK    7  A    between atoms: _17  and  _18
REMARK    8  A    between atoms: _17  and  _20
REMARK    9  A    between atoms: _20  and  _21
REMARK   10  A    between atoms: _21  and  _22
REMARK   11  A    between atoms: _25  and  _27
REMARK   12  A    between atoms: _27  and  _28
REMARK   13  A    between atoms: _27  and  _30
REMARK   14  A    between atoms: _30  and  _31
REMARK   15  A    between atoms: _36  and  _38
REMARK   16  A    between atoms: _38  and  _39
REMARK   17  A    between atoms: _41  and  _43
REMARK   18  A    between atoms: _43  and  _44
REMARK   19  A    between atoms: _46  and  _48
REMARK   20  A    between atoms: _48  and  _49
REMARK   21  A    between atoms: _48  and  _51
REMARK   22  A    between atoms: _51  and  _52
REMARK   23  A    between atoms: _55  and  _57
REMARK   24  A    between atoms: _57  and  _58
REMARK   25  A    between atoms: _60  and  _62
REMARK   26  A    between atoms: _62  and  _63
REMARK   27  A    between atoms: _62  and  _65
REMARK   28  A    between atoms: _65  and  _66
REMARK   29  A    between atoms: _66  and  _67
REMARK   30  A    between atoms: _67  and  _68
REMARK   31  A    between atoms: _77  and  _79
REMARK   32  A    between atoms: _79  and  _80
REMARK   33  A    between atoms: _79  and  _82
REMARK   34  A    between atoms: _82  and  _83
REMARK   35  A    between atoms: _86  and  _88
REMARK   36  A    between atoms: _88  and  _89
REMARK   37  A    between atoms: _92  and  _94
REMARK   38  A    between atoms: _94  and  _95
REMARK   39  A    between atoms: _94  and  _97
REMARK   40  A    between atoms: _97  and  _98
REMARK   41  A    between atoms: _104  and  _106
REMARK   42  A    between atoms: _106  and  _107
REMARK   43  A    between atoms: _106  and  _109
REMARK   44  A    between atoms: _109  and  _110
REMARK   45  A    between atoms: _115  and  _116
REMARK   46  A    between atoms: _119  and  _120
REMARK   47  A    between atoms: _125  and  _127
REMARK   48  A    between atoms: _127  and  _128
REMARK   49  A    between atoms: _127  and  _130
REMARK   50  A    between atoms: _130  and  _131
REMARK   51  A    between atoms: _136  and  _138
REMARK   52  A    between atoms: _138  and  _139
REMARK   53  A    between atoms: _138  and  _141
REMARK   54  A    between atoms: _141  and  _142
REMARK   55  A    between atoms: _145  and  _147
REMARK   56  A    between atoms: _147  and  _148
REMARK   57  A    between atoms: _147  and  _150
REMARK   58  A    between atoms: _150  and  _151
REMARK   59  A    between atoms: _156  and  _158
REMARK   60  A    between atoms: _158  and  _159
REMARK   61  A    between atoms: _158  and  _161
REMARK   62  A    between atoms: _161  and  _162
REMARK   63  A    between atoms: _168  and  _170
REMARK   64  A    between atoms: _170  and  _171
REMARK   65  A    between atoms: _170  and  _173
REMARK   66  A    between atoms: _173  and  _174
REMARK   67  A    between atoms: _180  and  _182
REMARK   68  A    between atoms: _182  and  _183
REMARK   69  A    between atoms: _182  and  _185
REMARK   70  A    between atoms: _185  and  _186
REMARK   71  A    between atoms: _186  and  _187
REMARK   72  A    between atoms: _190  and  _192
REMARK   73  A    between atoms: _192  and  _193
REMARK   74  A    between atoms: _195  and  _197
REMARK   75  A    between atoms: _197  and  _198
REMARK   76  A    between atoms: _197  and  _200
REMARK   77  A    between atoms: _200  and  _201
REMARK   78  A    between atoms: _201  and  _202
REMARK   79  A    between atoms: _202  and  _203
REMARK   80  A    between atoms: _203  and  _204
REMARK   81  A    between atoms: _208  and  _210
REMARK   82  A    between atoms: _210  and  _211
REMARK   83  A    between atoms: _210  and  _213
REMARK   84  A    between atoms: _213  and  _214
REMARK   85  A    between atoms: _214  and  _215
REMARK   86  A    between atoms: _215  and  _216
REMARK   87  A    between atoms: _225  and  _227
REMARK   88  A    between atoms: _227  and  _228
REMARK   89  A    between atoms: _227  and  _230
REMARK   90  A    between atoms: _230  and  _231
REMARK   91  A    between atoms: _231  and  _232
REMARK   92  A    between atoms: _235  and  _237
REMARK   93  A    between atoms: _237  and  _238
REMARK   94  A    between atoms: _237  and  _240
REMARK   95  A    between atoms: _240  and  _241
REMARK   96  A    between atoms: _246  and  _248
REMARK   97  A    between atoms: _248  and  _249
REMARK   98  A    between atoms: _248  and  _251
REMARK   99  A    between atoms: _251  and  _252
REMARK  100  A    between atoms: _255  and  _257
REMARK  101  A    between atoms: _257  and  _258
REMARK  102  A    between atoms: _257  and  _260
REMARK  103  A    between atoms: _260  and  _261
REMARK  104  A    between atoms: _264  and  _266
REMARK  105  A    between atoms: _266  and  _267
REMARK  106  A    between atoms: _266  and  _269
REMARK  107  A    between atoms: _269  and  _270
REMARK  108  A    between atoms: _275  and  _277
REMARK  109  A    between atoms: _277  and  _278
REMARK  110  A    between atoms: _277  and  _280
REMARK  111  A    between atoms: _280  and  _281
REMARK  112  A    between atoms: _284  and  _286
REMARK  113  A    between atoms: _286  and  _287
REMARK  114  A    between atoms: _286  and  _289
REMARK  115  A    between atoms: _289  and  _290
REMARK  116  A    between atoms: _295  and  _297
REMARK  117  A    between atoms: _297  and  _298
REMARK  118  A    between atoms: _297  and  _300
REMARK  119  A    between atoms: _300  and  _301
REMARK  120  A    between atoms: _306  and  _308
REMARK  121  A    between atoms: _308  and  _309
REMARK  122  A    between atoms: _308  and  _311
REMARK  123  A    between atoms: _311  and  _312
REMARK  124  A    between atoms: _315  and  _317
REMARK  125  A    between atoms: _317  and  _318
REMARK  126  A    between atoms: _317  and  _320
REMARK  127  A    between atoms: _323  and  _325
REMARK  128  A    between atoms: _325  and  _326
REMARK  129  A    between atoms: _325  and  _328
REMARK  130  A    between atoms: _328  and  _329
REMARK  131  A    between atoms: _333  and  _334
REMARK  132  A    between atoms: _339  and  _341
REMARK  133  A    between atoms: _341  and  _342
REMARK  134  A    between atoms: _341  and  _344
REMARK  135  A    between atoms: _344  and  _345
REMARK  136  A    between atoms: _345  and  _346
REMARK  137  A    between atoms: _349  and  _351
REMARK  138  A    between atoms: _351  and  _352
REMARK  139  A    between atoms: _355  and  _357
REMARK  140  A    between atoms: _357  and  _358
REMARK  141  A    between atoms: _357  and  _360
REMARK  142  A    between atoms: _360  and  _361
REMARK  143  A    between atoms: _364  and  _366
REMARK  144  A    between atoms: _366  and  _367
REMARK  145  A    between atoms: _366  and  _369
REMARK  146  A    between atoms: _369  and  _370
REMARK  147  A    between atoms: _370  and  _371
REMARK  148  A    between atoms: _374  and  _376
REMARK  149  A    between atoms: _376  and  _377
REMARK  150  A    between atoms: _376  and  _379
REMARK  151  A    between atoms: _379  and  _380
REMARK  152  A    between atoms: _385  and  _387
REMARK  153  A    between atoms: _387  and  _388
REMARK  154  A    between atoms: _390  and  _392
REMARK  155  A    between atoms: _392  and  _393
REMARK  156  A    between atoms: _392  and  _395
REMARK  157  A    between atoms: _398  and  _400
REMARK  158  A    between atoms: _400  and  _401
REMARK  159  A    between atoms: _404  and  _406
REMARK  160  A    between atoms: _406  and  _407
REMARK  161  A    between atoms: _406  and  _409
REMARK  162  A    between atoms: _409  and  _410
REMARK  163  A    between atoms: _415  and  _417
REMARK  164  A    between atoms: _417  and  _418
REMARK  165  A    between atoms: _417  and  _420
REMARK  166  A    between atoms: _420  and  _421
REMARK  167  A    between atoms: _421  and  _422
REMARK  168  A    between atoms: _422  and  _423
REMARK  169  A    between atoms: _423  and  _424
REMARK  170  A    between atoms: _428  and  _430
REMARK  171  A    between atoms: _430  and  _431
REMARK  172  A    between atoms: _430  and  _433
REMARK  173  A    between atoms: _433  and  _434
REMARK  174  A    between atoms: _437  and  _439
REMARK  175  A    between atoms: _439  and  _440
REMARK  176  A    between atoms: _439  and  _442
REMARK  177  A    between atoms: _442  and  _443
REMARK  178  A    between atoms: _448  and  _450
REMARK  179  A    between atoms: _450  and  _451
REMARK  180  A    between atoms: _453  and  _455
REMARK  181  A    between atoms: _455  and  _456
REMARK  182  A    between atoms: _455  and  _458
REMARK  183  A    between atoms: _458  and  _459
REMARK  184  A    between atoms: _459  and  _460
REMARK  185  A    between atoms: _460  and  _461
REMARK  186  A    between atoms: _461  and  _462
REMARK  187  A    between atoms: _466  and  _468
REMARK  188  A    between atoms: _468  and  _469
REMARK  189  A    between atoms: _468  and  _471
REMARK  190  A    between atoms: _471  and  _472
REMARK  191  A    between atoms: _472  and  _473
REMARK  192  A    between atoms: _473  and  _474
REMARK  193  A    between atoms: _483  and  _485
REMARK  194  A    between atoms: _485  and  _486
REMARK  195  A    between atoms: _485  and  _488
REMARK  196  A    between atoms: _488  and  _489
REMARK  197  A    between atoms: _494  and  _496
REMARK  198  A    between atoms: _496  and  _497
REMARK  199  A    between atoms: _496  and  _499
REMARK  200  A    between atoms: _499  and  _500
REMARK  201  A    between atoms: _505  and  _506
REMARK  202  A    between atoms: _508  and  _510
REMARK  203  A    between atoms: _510  and  _511
REMARK  204  A    between atoms: _510  and  _513
REMARK  205  A    between atoms: _513  and  _514
REMARK  206  A    between atoms: _514  and  _515
REMARK  207  A    between atoms: _515  and  _516
REMARK  208  A    between atoms: _516  and  _517
REMARK  209  A    between atoms: _521  and  _523
REMARK  210  A    between atoms: _523  and  _524
REMARK  211  A    between atoms: _523  and  _526
REMARK  212  A    between atoms: _526  and  _527
REMARK  213  A    between atoms: _529  and  _531
REMARK  214  A    between atoms: _531  and  _532
REMARK  215  A    between atoms: _531  and  _534
REMARK  216  A    between atoms: _534  and  _535
REMARK  217  A    between atoms: _538  and  _540
REMARK  218  A    between atoms: _540  and  _541
REMARK  219  A    between atoms: _540  and  _543
REMARK  220  A    between atoms: _543  and  _544
REMARK  221  A    between atoms: _544  and  _545
REMARK  222  A    between atoms: _548  and  _550
REMARK  223  A    between atoms: _550  and  _551
REMARK  224  A    between atoms: _554  and  _556
REMARK  225  A    between atoms: _556  and  _557
REMARK  226  A    between atoms: _556  and  _559
REMARK  227  A    between atoms: _559  and  _560
REMARK  228  A    between atoms: _562  and  _564
REMARK  229  A    between atoms: _564  and  _565
REMARK  230  A    between atoms: _567  and  _569
REMARK  231  A    between atoms: _569  and  _570
REMARK  232  A    between atoms: _569  and  _572
REMARK  233  A    between atoms: _572  and  _573
REMARK  234  A    between atoms: _576  and  _578
REMARK  235  A    between atoms: _578  and  _579
REMARK  236  A    between atoms: _581  and  _583
REMARK  237  A    between atoms: _583  and  _584
REMARK  238  A    between atoms: _583  and  _586
REMARK  239  A    between atoms: _586  and  _587
REMARK  240  A    between atoms: _592  and  _594
REMARK  241  A    between atoms: _594  and  _595
REMARK  242  A    between atoms: _594  and  _597
REMARK  243  A    between atoms: _597  and  _598
REMARK  244  A    between atoms: _598  and  _599
REMARK  245  A    between atoms: _606  and  _607
REMARK  246  A    between atoms: _607  and  _623
REMARK  247  A    between atoms: _608  and  _610
REMARK  248  A    between atoms: _610  and  _611
REMARK  249  A    between atoms: _611  and  _612
REMARK  250  A    between atoms: _616  and  _618
REMARK  251  A    between atoms: _618  and  _619
REMARK  252  A    between atoms: _618  and  _626
REMARK  253  A    between atoms: _619  and  _620
REMARK  254  A    between atoms: _620  and  _621
REMARK  255  A    between atoms: _621  and  _622
REMARK  256  A    between atoms: _622  and  _623
REMARK  257  A    between atoms: _628  and  _630
REMARK  258  A    between atoms: _630  and  _631
REMARK  259  A    between atoms: _630  and  _633
REMARK  260  A    between atoms: _633  and  _634
REMARK  261  A    between atoms: _637  and  _639
REMARK  262  A    between atoms: _639  and  _640
REMARK  263  A    between atoms: _642  and  _644
REMARK  264  A    between atoms: _644  and  _645
REMARK  265  A    between atoms: _648  and  _650
REMARK  266  A    between atoms: _650  and  _651
REMARK  267  A    between atoms: _650  and  _653
REMARK  268  A    between atoms: _653  and  _654
REMARK  269  A    between atoms: _659  and  _660
REMARK                            x       y       z     vdW  Elec       q    Type
REMARK                         _______ _______ _______ _____ _____    ______ ____
ROOT
ATOM      1  O   HOH     1      26.585  23.260  21.291  0.00  0.00    +0.000 OA
ENDROOT
TORSDOF 0
REMARK  Name = ../refined-set-2016/2pyi/2pyi_pocket.pdb
REMARK  269 active torsions:
REMARK  status: ('A' for Active; 'I' for Inactive)
REMARK    1  A    between atoms: _1  and  _3
REMARK    2  A    between atoms: _3  and  _4
REMARK    3  A    between atoms: _3  and  _6
REMARK    4  A    between atoms: _6  and  _7
REMARK    5  A    between atoms: _12  and  _13
REMARK    6  A    between atoms: _15  and  _17
REMARK    7  A    between atoms: _17  and  _18
REMARK    8  A    between atoms: _17  and  _20
REMARK    9  A    between atoms: _20  and  _21
REMARK   10  A    between atoms: _21  and  _22
REMARK   11  A    between atoms: _25  and  _27
REMARK   12  A    between atoms: _27  and  _28
REMARK   13  A    between atoms: _27  and  _30
REMARK   14  A    between atoms: _30  and  _31
REMARK   15  A    between atoms: _36  and  _38
REMARK   16  A    between atoms: _38  and  _39
REMARK   17  A    between atoms: _41  and  _43
REMARK   18  A    between atoms: _43  and  _44
REMARK   19  A    between atoms: _46  and  _48
REMARK   20  A    between atoms: _48  and  _49
REMARK   21  A    between atoms: _48  and  _51
REMARK   22  A    between atoms: _51  and  _52
REMARK   23  A    between atoms: _55  and  _57
REMARK   24  A    between atoms: _57  and  _58
REMARK   25  A    between atoms: _60  and  _62
REMARK   26  A    between atoms: _62  and  _63
REMARK   27  A    between atoms: _62  and  _65
REMARK   28  A    between atoms: _65  and  _66
REMARK   29  A    between atoms: _66  and  _67
REMARK   30  A    between atoms: _67  and  _68
REMARK   31  A    between atoms: _77  and  _79
REMARK   32  A    between atoms: _79  and  _80
REMARK   33  A    between atoms: _79  and  _82
REMARK   34  A    between atoms: _82  and  _83
REMARK   35  A    between atoms: _86  and  _88
REMARK   36  A    between atoms: _88  and  _89
REMARK   37  A    between atoms: _92  and  _94
REMARK   38  A    between atoms: _94  and  _95
REMARK   39  A    between atoms: _94  and  _97
REMARK   40  A    between atoms: _97  and  _98
REMARK   41  A    between atoms: _104  and  _106
REMARK   42  A    between atoms: _106  and  _107
REMARK   43  A    between atoms: _106  and  _109
REMARK   44  A    between atoms: _109  and  _110
REMARK   45  A    between atoms: _115  and  _116
REMARK   46  A    between atoms: _119  and  _120
REMARK   47  A    between atoms: _125  and  _127
REMARK   48  A    between atoms: _127  and  _128
REMARK   49  A    between atoms: _127  and  _130
REMARK   50  A    between atoms: _130  and  _131
REMARK   51  A    between atoms: _136  and  _138
REMARK   52  A    between atoms: _138  and  _139
REMARK   53  A    between atoms: _138  and  _141
REMARK   54  A    between atoms: _141  and  _142
REMARK   55  A    between atoms: _145  and  _147
REMARK   56  A    between atoms: _147  and  _148
REMARK   57  A    between atoms: _147  and  _150
REMARK   58  A    between atoms: _150  and  _151
REMARK   59  A    between atoms: _156  and  _158
REMARK   60  A    between atoms: _158  and  _159
REMARK   61  A    between atoms: _158  and  _161
REMARK   62  A    between atoms: _161  and  _162
REMARK   63  A    between atoms: _168  and  _170
REMARK   64  A    between atoms: _170  and  _171
REMARK   65  A    between atoms: _170  and  _173
REMARK   66  A    between atoms: _173  and  _174
REMARK   67  A    between atoms: _180  and  _182
REMARK   68  A    between atoms: _182  and  _183
REMARK   69  A    between atoms: _182  and  _185
REMARK   70  A    between atoms: _185  and  _186
REMARK   71  A    between atoms: _186  and  _187
REMARK   72  A    between atoms: _190  and  _192
REMARK   73  A    between atoms: _192  and  _193
REMARK   74  A    between atoms: _195  and  _197
REMARK   75  A    between atoms: _197  and  _198
REMARK   76  A    between atoms: _197  and  _200
REMARK   77  A    between atoms: _200  and  _201
REMARK   78  A    between atoms: _201  and  _202
REMARK   79  A    between atoms: _202  and  _203
REMARK   80  A    between atoms: _203  and  _204
REMARK   81  A    between atoms: _208  and  _210
REMARK   82  A    between atoms: _210  and  _211
REMARK   83  A    between atoms: _210  and  _213
REMARK   84  A    between atoms: _213  and  _214
REMARK   85  A    between atoms: _214  and  _215
REMARK   86  A    between atoms: _215  and  _216
REMARK   87  A    between atoms: _225  and  _227
REMARK   88  A    between atoms: _227  and  _228
REMARK   89  A    between atoms: _227  and  _230
REMARK   90  A    between atoms: _230  and  _231
REMARK   91  A    between atoms: _231  and  _232
REMARK   92  A    between atoms: _235  and  _237
REMARK   93  A    between atoms: _237  and  _238
REMARK   94  A    between atoms: _237  and  _240
REMARK   95  A    between atoms: _240  and  _241
REMARK   96  A    between atoms: _246  and  _248
REMARK   97  A    between atoms: _248  and  _249
REMARK   98  A    between atoms: _248  and  _251
REMARK   99  A    between atoms: _251  and  _252
REMARK  100  A    between atoms: _255  and  _257
REMARK  101  A    between atoms: _257  and  _258
REMARK  102  A    between atoms: _257  and  _260
REMARK  103  A    between atoms: _260  and  _261
REMARK  104  A    between atoms: _264  and  _266
REMARK  105  A    between atoms: _266  and  _267
REMARK  106  A    between atoms: _266  and  _269
REMARK  107  A    between atoms: _269  and  _270
REMARK  108  A    between atoms: _275  and  _277
REMARK  109  A    between atoms: _277  and  _278
REMARK  110  A    between atoms: _277  and  _280
REMARK  111  A    between atoms: _280  and  _281
REMARK  112  A    between atoms: _284  and  _286
REMARK  113  A    between atoms: _286  and  _287
REMARK  114  A    between atoms: _286  and  _289
REMARK  115  A    between atoms: _289  and  _290
REMARK  116  A    between atoms: _295  and  _297
REMARK  117  A    between atoms: _297  and  _298
REMARK  118  A    between atoms: _297  and  _300
REMARK  119  A    between atoms: _300  and  _301
REMARK  120  A    between atoms: _306  and  _308
REMARK  121  A    between atoms: _308  and  _309
REMARK  122  A    between atoms: _308  and  _311
REMARK  123  A    between atoms: _311  and  _312
REMARK  124  A    between atoms: _315  and  _317
REMARK  125  A    between atoms: _317  and  _318
REMARK  126  A    between atoms: _317  and  _320
REMARK  127  A    between atoms: _323  and  _325
REMARK  128  A    between atoms: _325  and  _326
REMARK  129  A    between atoms: _325  and  _328
REMARK  130  A    between atoms: _328  and  _329
REMARK  131  A    between atoms: _333  and  _334
REMARK  132  A    between atoms: _339  and  _341
REMARK  133  A    between atoms: _341  and  _342
REMARK  134  A    between atoms: _341  and  _344
REMARK  135  A    between atoms: _344  and  _345
REMARK  136  A    between atoms: _345  and  _346
REMARK  137  A    between atoms: _349  and  _351
REMARK  138  A    between atoms: _351  and  _352
REMARK  139  A    between atoms: _355  and  _357
REMARK  140  A    between atoms: _357  and  _358
REMARK  141  A    between atoms: _357  and  _360
REMARK  142  A    between atoms: _360  and  _361
REMARK  143  A    between atoms: _364  and  _366
REMARK  144  A    between atoms: _366  and  _367
REMARK  145  A    between atoms: _366  and  _369
REMARK  146  A    between atoms: _369  and  _370
REMARK  147  A    between atoms: _370  and  _371
REMARK  148  A    between atoms: _374  and  _376
REMARK  149  A    between atoms: _376  and  _377
REMARK  150  A    between atoms: _376  and  _379
REMARK  151  A    between atoms: _379  and  _380
REMARK  152  A    between atoms: _385  and  _387
REMARK  153  A    between atoms: _387  and  _388
REMARK  154  A    between atoms: _390  and  _392
REMARK  155  A    between atoms: _392  and  _393
REMARK  156  A    between atoms: _392  and  _395
REMARK  157  A    between atoms: _398  and  _400
REMARK  158  A    between atoms: _400  and  _401
REMARK  159  A    between atoms: _404  and  _406
REMARK  160  A    between atoms: _406  and  _407
REMARK  161  A    between atoms: _406  and  _409
REMARK  162  A    between atoms: _409  and  _410
REMARK  163  A    between atoms: _415  and  _417
REMARK  164  A    between atoms: _417  and  _418
REMARK  165  A    between atoms: _417  and  _420
REMARK  166  A    between atoms: _420  and  _421
REMARK  167  A    between atoms: _421  and  _422
REMARK  168  A    between atoms: _422  and  _423
REMARK  169  A    between atoms: _423  and  _424
REMARK  170  A    between atoms: _428  and  _430
REMARK  171  A    between atoms: _430  and  _431
REMARK  172  A    between atoms: _430  and  _433
REMARK  173  A    between atoms: _433  and  _434
REMARK  174  A    between atoms: _437  and  _439
REMARK  175  A    between atoms: _439  and  _440
REMARK  176  A    between atoms: _439  and  _442
REMARK  177  A    between atoms: _442  and  _443
REMARK  178  A    between atoms: _448  and  _450
REMARK  179  A    between atoms: _450  and  _451
REMARK  180  A    between atoms: _453  and  _455
REMARK  181  A    between atoms: _455  and  _456
REMARK  182  A    between atoms: _455  and  _458
REMARK  183  A    between atoms: _458  and  _459
REMARK  184  A    between atoms: _459  and  _460
REMARK  185  A    between atoms: _460  and  _461
REMARK  186  A    between atoms: _461  and  _462
REMARK  187  A    between atoms: _466  and  _468
REMARK  188  A    between atoms: _468  and  _469
REMARK  189  A    between atoms: _468  and  _471
REMARK  190  A    between atoms: _471  and  _472
REMARK  191  A    between atoms: _472  and  _473
REMARK  192  A    between atoms: _473  and  _474
REMARK  193  A    between atoms: _483  and  _485
REMARK  194  A    between atoms: _485  and  _486
REMARK  195  A    between atoms: _485  and  _488
REMARK  196  A    between atoms: _488  and  _489
REMARK  197  A    between atoms: _494  and  _496
REMARK  198  A    between atoms: _496  and  _497
REMARK  199  A    between atoms: _496  and  _499
REMARK  200  A    between atoms: _499  and  _500
REMARK  201  A    between atoms: _505  and  _506
REMARK  202  A    between atoms: _508  and  _510
REMARK  203  A    between atoms: _510  and  _511
REMARK  204  A    between atoms: _510  and  _513
REMARK  205  A    between atoms: _513  and  _514
REMARK  206  A    between atoms: _514  and  _515
REMARK  207  A    between atoms: _515  and  _516
REMARK  208  A    between atoms: _516  and  _517
REMARK  209  A    between atoms: _521  and  _523
REMARK  210  A    between atoms: _523  and  _524
REMARK  211  A    between atoms: _523  and  _526
REMARK  212  A    between atoms: _526  and  _527
REMARK  213  A    between atoms: _529  and  _531
REMARK  214  A    between atoms: _531  and  _532
REMARK  215  A    between atoms: _531  and  _534
REMARK  216  A    between atoms: _534  and  _535
REMARK  217  A    between atoms: _538  and  _540
REMARK  218  A    between atoms: _540  and  _541
REMARK  219  A    between atoms: _540  and  _543
REMARK  220  A    between atoms: _543  and  _544
REMARK  221  A    between atoms: _544  and  _545
REMARK  222  A    between atoms: _548  and  _550
REMARK  223  A    between atoms: _550  and  _551
REMARK  224  A    between atoms: _554  and  _556
REMARK  225  A    between atoms: _556  and  _557
REMARK  226  A    between atoms: _556  and  _559
REMARK  227  A    between atoms: _559  and  _560
REMARK  228  A    between atoms: _562  and  _564
REMARK  229  A    between atoms: _564  and  _565
REMARK  230  A    between atoms: _567  and  _569
REMARK  231  A    between atoms: _569  and  _570
REMARK  232  A    between atoms: _569  and  _572
REMARK  233  A    between atoms: _572  and  _573
REMARK  234  A    between atoms: _576  and  _578
REMARK  235  A    between atoms: _578  and  _579
REMARK  236  A    between atoms: _581  and  _583
REMARK  237  A    between atoms: _583  and  _584
REMARK  238  A    between atoms: _583  and  _586
REMARK  239  A    between atoms: _586  and  _587
REMARK  240  A    between atoms: _592  and  _594
REMARK  241  A    between atoms: _594  and  _595
REMARK  242  A    between atoms: _594  and  _597
REMARK  243  A    between atoms: _597  and  _598
REMARK  244  A    between atoms: _598  and  _599
REMARK  245  A    between atoms: _606  and  _607
REMARK  246  A    between atoms: _607  and  _623
REMARK  247  A    between atoms: _608  and  _610
REMARK  248  A    between atoms: _610  and  _611
REMARK  249  A    between atoms: _611  and  _612
REMARK  250  A    between atoms: _616  and  _618
REMARK  251  A    between atoms: _618  and  _619
REMARK  252  A    between atoms: _618  and  _626
REMARK  253  A    between atoms: _619  and  _620
REMARK  254  A    between atoms: _620  and  _621
REMARK  255  A    between atoms: _621  and  _622
REMARK  256  A    between atoms: _622  and  _623
REMARK  257  A    between atoms: _628  and  _630
REMARK  258  A    between atoms: _630  and  _631
REMARK  259  A    between atoms: _630  and  _633
REMARK  260  A    between atoms: _633  and  _634
REMARK  261  A    between atoms: _637  and  _639
REMARK  262  A    between atoms: _639  and  _640
REMARK  263  A    between atoms: _642  and  _644
REMARK  264  A    between atoms: _644  and  _645
REMARK  265  A    between atoms: _648  and  _650
REMARK  266  A    between atoms: _650  and  _651
REMARK  267  A    between atoms: _650  and  _653
REMARK  268  A    between atoms: _653  and  _654
REMARK  269  A    between atoms: _659  and  _660
REMARK                            x       y       z     vdW  Elec       q    Type
REMARK                         _______ _______ _______ _____ _____    ______ ____
ROOT
ATOM      1  O   HOH     1      30.684  23.554  33.014  0.00  0.00    +0.000 OA
ENDROOT
TORSDOF 0
REMARK  Name = ../refined-set-2016/2pyi/2pyi_pocket.pdb
REMARK  269 active torsions:
REMARK  status: ('A' for Active; 'I' for Inactive)
REMARK    1  A    between atoms: _1  and  _3
REMARK    2  A    between atoms: _3  and  _4
REMARK    3  A    between atoms: _3  and  _6
REMARK    4  A    between atoms: _6  and  _7
REMARK    5  A    between atoms: _12  and  _13
REMARK    6  A    between atoms: _15  and  _17
REMARK    7  A    between atoms: _17  and  _18
REMARK    8  A    between atoms: _17  and  _20
REMARK    9  A    between atoms: _20  and  _21
REMARK   10  A    between atoms: _21  and  _22
REMARK   11  A    between atoms: _25  and  _27
REMARK   12  A    between atoms: _27  and  _28
REMARK   13  A    between atoms: _27  and  _30
REMARK   14  A    between atoms: _30  and  _31
REMARK   15  A    between atoms: _36  and  _38
REMARK   16  A    between atoms: _38  and  _39
REMARK   17  A    between atoms: _41  and  _43
REMARK   18  A    between atoms: _43  and  _44
REMARK   19  A    between atoms: _46  and  _48
REMARK   20  A    between atoms: _48  and  _49
REMARK   21  A    between atoms: _48  and  _51
REMARK   22  A    between atoms: _51  and  _52
REMARK   23  A    between atoms: _55  and  _57
REMARK   24  A    between atoms: _57  and  _58
REMARK   25  A    between atoms: _60  and  _62
REMARK   26  A    between atoms: _62  and  _63
REMARK   27  A    between atoms: _62  and  _65
REMARK   28  A    between atoms: _65  and  _66
REMARK   29  A    between atoms: _66  and  _67
REMARK   30  A    between atoms: _67  and  _68
REMARK   31  A    between atoms: _77  and  _79
REMARK   32  A    between atoms: _79  and  _80
REMARK   33  A    between atoms: _79  and  _82
REMARK   34  A    between atoms: _82  and  _83
REMARK   35  A    between atoms: _86  and  _88
REMARK   36  A    between atoms: _88  and  _89
REMARK   37  A    between atoms: _92  and  _94
REMARK   38  A    between atoms: _94  and  _95
REMARK   39  A    between atoms: _94  and  _97
REMARK   40  A    between atoms: _97  and  _98
REMARK   41  A    between atoms: _104  and  _106
REMARK   42  A    between atoms: _106  and  _107
REMARK   43  A    between atoms: _106  and  _109
REMARK   44  A    between atoms: _109  and  _110
REMARK   45  A    between atoms: _115  and  _116
REMARK   46  A    between atoms: _119  and  _120
REMARK   47  A    between atoms: _125  and  _127
REMARK   48  A    between atoms: _127  and  _128
REMARK   49  A    between atoms: _127  and  _130
REMARK   50  A    between atoms: _130  and  _131
REMARK   51  A    between atoms: _136  and  _138
REMARK   52  A    between atoms: _138  and  _139
REMARK   53  A    between atoms: _138  and  _141
REMARK   54  A    between atoms: _141  and  _142
REMARK   55  A    between atoms: _145  and  _147
REMARK   56  A    between atoms: _147  and  _148
REMARK   57  A    between atoms: _147  and  _150
REMARK   58  A    between atoms: _150  and  _151
REMARK   59  A    between atoms: _156  and  _158
REMARK   60  A    between atoms: _158  and  _159
REMARK   61  A    between atoms: _158  and  _161
REMARK   62  A    between atoms: _161  and  _162
REMARK   63  A    between atoms: _168  and  _170
REMARK   64  A    between atoms: _170  and  _171
REMARK   65  A    between atoms: _170  and  _173
REMARK   66  A    between atoms: _173  and  _174
REMARK   67  A    between atoms: _180  and  _182
REMARK   68  A    between atoms: _182  and  _183
REMARK   69  A    between atoms: _182  and  _185
REMARK   70  A    between atoms: _185  and  _186
REMARK   71  A    between atoms: _186  and  _187
REMARK   72  A    between atoms: _190  and  _192
REMARK   73  A    between atoms: _192  and  _193
REMARK   74  A    between atoms: _195  and  _197
REMARK   75  A    between atoms: _197  and  _198
REMARK   76  A    between atoms: _197  and  _200
REMARK   77  A    between atoms: _200  and  _201
REMARK   78  A    between atoms: _201  and  _202
REMARK   79  A    between atoms: _202  and  _203
REMARK   80  A    between atoms: _203  and  _204
REMARK   81  A    between atoms: _208  and  _210
REMARK   82  A    between atoms: _210  and  _211
REMARK   83  A    between atoms: _210  and  _213
REMARK   84  A    between atoms: _213  and  _214
REMARK   85  A    between atoms: _214  and  _215
REMARK   86  A    between atoms: _215  and  _216
REMARK   87  A    between atoms: _225  and  _227
REMARK   88  A    between atoms: _227  and  _228
REMARK   89  A    between atoms: _227  and  _230
REMARK   90  A    between atoms: _230  and  _231
REMARK   91  A    between atoms: _231  and  _232
REMARK   92  A    between atoms: _235  and  _237
REMARK   93  A    between atoms: _237  and  _238
REMARK   94  A    between atoms: _237  and  _240
REMARK   95  A    between atoms: _240  and  _241
REMARK   96  A    between atoms: _246  and  _248
REMARK   97  A    between atoms: _248  and  _249
REMARK   98  A    between atoms: _248  and  _251
REMARK   99  A    between atoms: _251  and  _252
REMARK  100  A    between atoms: _255  and  _257
REMARK  101  A    between atoms: _257  and  _258
REMARK  102  A    between atoms: _257  and  _260
REMARK  103  A    between atoms: _260  and  _261
REMARK  104  A    between atoms: _264  and  _266
REMARK  105  A    between atoms: _266  and  _267
REMARK  106  A    between atoms: _266  and  _269
REMARK  107  A    between atoms: _269  and  _270
REMARK  108  A    between atoms: _275  and  _277
REMARK  109  A    between atoms: _277  and  _278
REMARK  110  A    between atoms: _277  and  _280
REMARK  111  A    between atoms: _280  and  _281
REMARK  112  A    between atoms: _284  and  _286
REMARK  113  A    between atoms: _286  and  _287
REMARK  114  A    between atoms: _286  and  _289
REMARK  115  A    between atoms: _289  and  _290
REMARK  116  A    between atoms: _295  and  _297
REMARK  117  A    between atoms: _297  and  _298
REMARK  118  A    between atoms: _297  and  _300
REMARK  119  A    between atoms: _300  and  _301
REMARK  120  A    between atoms: _306  and  _308
REMARK  121  A    between atoms: _308  and  _309
REMARK  122  A    between atoms: _308  and  _311
REMARK  123  A    between atoms: _311  and  _312
REMARK  124  A    between atoms: _315  and  _317
REMARK  125  A    between atoms: _317  and  _318
REMARK  126  A    between atoms: _317  and  _320
REMARK  127  A    between atoms: _323  and  _325
REMARK  128  A    between atoms: _325  and  _326
REMARK  129  A    between atoms: _325  and  _328
REMARK  130  A    between atoms: _328  and  _329
REMARK  131  A    between atoms: _333  and  _334
REMARK  132  A    between atoms: _339  and  _341
REMARK  133  A    between atoms: _341  and  _342
REMARK  134  A    between atoms: _341  and  _344
REMARK  135  A    between atoms: _344  and  _345
REMARK  136  A    between atoms: _345  and  _346
REMARK  137  A    between atoms: _349  and  _351
REMARK  138  A    between atoms: _351  and  _352
REMARK  139  A    between atoms: _355  and  _357
REMARK  140  A    between atoms: _357  and  _358
REMARK  141  A    between atoms: _357  and  _360
REMARK  142  A    between atoms: _360  and  _361
REMARK  143  A    between atoms: _364  and  _366
REMARK  144  A    between atoms: _366  and  _367
REMARK  145  A    between atoms: _366  and  _369
REMARK  146  A    between atoms: _369  and  _370
REMARK  147  A    between atoms: _370  and  _371
REMARK  148  A    between atoms: _374  and  _376
REMARK  149  A    between atoms: _376  and  _377
REMARK  150  A    between atoms: _376  and  _379
REMARK  151  A    between atoms: _379  and  _380
REMARK  152  A    between atoms: _385  and  _387
REMARK  153  A    between atoms: _387  and  _388
REMARK  154  A    between atoms: _390  and  _392
REMARK  155  A    between atoms: _392  and  _393
REMARK  156  A    between atoms: _392  and  _395
REMARK  157  A    between atoms: _398  and  _400
REMARK  158  A    between atoms: _400  and  _401
REMARK  159  A    between atoms: _404  and  _406
REMARK  160  A    between atoms: _406  and  _407
REMARK  161  A    between atoms: _406  and  _409
REMARK  162  A    between atoms: _409  and  _410
REMARK  163  A    between atoms: _415  and  _417
REMARK  164  A    between atoms: _417  and  _418
REMARK  165  A    between atoms: _417  and  _420
REMARK  166  A    between atoms: _420  and  _421
REMARK  167  A    between atoms: _421  and  _422
REMARK  168  A    between atoms: _422  and  _423
REMARK  169  A    between atoms: _423  and  _424
REMARK  170  A    between atoms: _428  and  _430
REMARK  171  A    between atoms: _430  and  _431
REMARK  172  A    between atoms: _430  and  _433
REMARK  173  A    between atoms: _433  and  _434
REMARK  174  A    between atoms: _437  and  _439
REMARK  175  A    between atoms: _439  and  _440
REMARK  176  A    between atoms: _439  and  _442
REMARK  177  A    between atoms: _442  and  _443
REMARK  178  A    between atoms: _448  and  _450
REMARK  179  A    between atoms: _450  and  _451
REMARK  180  A    between atoms: _453  and  _455
REMARK  181  A    between atoms: _455  and  _456
REMARK  182  A    between atoms: _455  and  _458
REMARK  183  A    between atoms: _458  and  _459
REMARK  184  A    between atoms: _459  and  _460
REMARK  185  A    between atoms: _460  and  _461
REMARK  186  A    between atoms: _461  and  _462
REMARK  187  A    between atoms: _466  and  _468
REMARK  188  A    between atoms: _468  and  _469
REMARK  189  A    between atoms: _468  and  _471
REMARK  190  A    between atoms: _471  and  _472
REMARK  191  A    between atoms: _472  and  _473
REMARK  192  A    between atoms: _473  and  _474
REMARK  193  A    between atoms: _483  and  _485
REMARK  194  A    between atoms: _485  and  _486
REMARK  195  A    between atoms: _485  and  _488
REMARK  196  A    between atoms: _488  and  _489
REMARK  197  A    between atoms: _494  and  _496
REMARK  198  A    between atoms: _496  and  _497
REMARK  199  A    between atoms: _496  and  _499
REMARK  200  A    between atoms: _499  and  _500
REMARK  201  A    between atoms: _505  and  _506
REMARK  202  A    between atoms: _508  and  _510
REMARK  203  A    between atoms: _510  and  _511
REMARK  204  A    between atoms: _510  and  _513
REMARK  205  A    between atoms: _513  and  _514
REMARK  206  A    between atoms: _514  and  _515
REMARK  207  A    between atoms: _515  and  _516
REMARK  208  A    between atoms: _516  and  _517
REMARK  209  A    between atoms: _521  and  _523
REMARK  210  A    between atoms: _523  and  _524
REMARK  211  A    between atoms: _523  and  _526
REMARK  212  A    between atoms: _526  and  _527
REMARK  213  A    between atoms: _529  and  _531
REMARK  214  A    between atoms: _531  and  _532
REMARK  215  A    between atoms: _531  and  _534
REMARK  216  A    between atoms: _534  and  _535
REMARK  217  A    between atoms: _538  and  _540
REMARK  218  A    between atoms: _540  and  _541
REMARK  219  A    between atoms: _540  and  _543
REMARK  220  A    between atoms: _543  and  _544
REMARK  221  A    between atoms: _544  and  _545
REMARK  222  A    between atoms: _548  and  _550
REMARK  223  A    between atoms: _550  and  _551
REMARK  224  A    between atoms: _554  and  _556
REMARK  225  A    between atoms: _556  and  _557
REMARK  226  A    between atoms: _556  and  _559
REMARK  227  A    between atoms: _559  and  _560
REMARK  228  A    between atoms: _562  and  _564
REMARK  229  A    between atoms: _564  and  _565
REMARK  230  A    between atoms: _567  and  _569
REMARK  231  A    between atoms: _569  and  _570
REMARK  232  A    between atoms: _569  and  _572
REMARK  233  A    between atoms: _572  and  _573
REMARK  234  A    between atoms: _576  and  _578
REMARK  235  A    between atoms: _578  and  _579
REMARK  236  A    between atoms: _581  and  _583
REMARK  237  A    between atoms: _583  and  _584
REMARK  238  A    between atoms: _583  and  _586
REMARK  239  A    between atoms: _586  and  _587
REMARK  240  A    between atoms: _592  and  _594
REMARK  241  A    between atoms: _594  and  _595
REMARK  242  A    between atoms: _594  and  _597
REMARK  243  A    between atoms: _597  and  _598
REMARK  244  A    between atoms: _598  and  _599
REMARK  245  A    between atoms: _606  and  _607
REMARK  246  A    between atoms: _607  and  _623
REMARK  247  A    between atoms: _608  and  _610
REMARK  248  A    between atoms: _610  and  _611
REMARK  249  A    between atoms: _611  and  _612
REMARK  250  A    between atoms: _616  and  _618
REMARK  251  A    between atoms: _618  and  _619
REMARK  252  A    between atoms: _618  and  _626
REMARK  253  A    between atoms: _619  and  _620
REMARK  254  A    between atoms: _620  and  _621
REMARK  255  A    between atoms: _621  and  _622
REMARK  256  A    between atoms: _622  and  _623
REMARK  257  A    between atoms: _628  and  _630
REMARK  258  A    between atoms: _630  and  _631
REMARK  259  A    between atoms: _630  and  _633
REMARK  260  A    between atoms: _633  and  _634
REMARK  261  A    between atoms: _637  and  _639
REMARK  262  A    between atoms: _639  and  _640
REMARK  263  A    between atoms: _642  and  _644
REMARK  264  A    between atoms: _644  and  _645
REMARK  265  A    between atoms: _648  and  _650
REMARK  266  A    between atoms: _650  and  _651
REMARK  267  A    between atoms: _650  and  _653
REMARK  268  A    between atoms: _653  and  _654
REMARK  269  A    between atoms: _659  and  _660
REMARK                            x       y       z     vdW  Elec       q    Type
REMARK                         _______ _______ _______ _____ _____    ______ ____
ROOT
ATOM      1  O   HOH     1      28.859  21.562  25.950  0.00  0.00    +0.000 OA
ENDROOT
TORSDOF 0
REMARK  Name = ../refined-set-2016/2pyi/2pyi_pocket.pdb
REMARK  269 active torsions:
REMARK  status: ('A' for Active; 'I' for Inactive)
REMARK    1  A    between atoms: _1  and  _3
REMARK    2  A    between atoms: _3  and  _4
REMARK    3  A    between atoms: _3  and  _6
REMARK    4  A    between atoms: _6  and  _7
REMARK    5  A    between atoms: _12  and  _13
REMARK    6  A    between atoms: _15  and  _17
REMARK    7  A    between atoms: _17  and  _18
REMARK    8  A    between atoms: _17  and  _20
REMARK    9  A    between atoms: _20  and  _21
REMARK   10  A    between atoms: _21  and  _22
REMARK   11  A    between atoms: _25  and  _27
REMARK   12  A    between atoms: _27  and  _28
REMARK   13  A    between atoms: _27  and  _30
REMARK   14  A    between atoms: _30  and  _31
REMARK   15  A    between atoms: _36  and  _38
REMARK   16  A    between atoms: _38  and  _39
REMARK   17  A    between atoms: _41  and  _43
REMARK   18  A    between atoms: _43  and  _44
REMARK   19  A    between atoms: _46  and  _48
REMARK   20  A    between atoms: _48  and  _49
REMARK   21  A    between atoms: _48  and  _51
REMARK   22  A    between atoms: _51  and  _52
REMARK   23  A    between atoms: _55  and  _57
REMARK   24  A    between atoms: _57  and  _58
REMARK   25  A    between atoms: _60  and  _62
REMARK   26  A    between atoms: _62  and  _63
REMARK   27  A    between atoms: _62  and  _65
REMARK   28  A    between atoms: _65  and  _66
REMARK   29  A    between atoms: _66  and  _67
REMARK   30  A    between atoms: _67  and  _68
REMARK   31  A    between atoms: _77  and  _79
REMARK   32  A    between atoms: _79  and  _80
REMARK   33  A    between atoms: _79  and  _82
REMARK   34  A    between atoms: _82  and  _83
REMARK   35  A    between atoms: _86  and  _88
REMARK   36  A    between atoms: _88  and  _89
REMARK   37  A    between atoms: _92  and  _94
REMARK   38  A    between atoms: _94  and  _95
REMARK   39  A    between atoms: _94  and  _97
REMARK   40  A    between atoms: _97  and  _98
REMARK   41  A    between atoms: _104  and  _106
REMARK   42  A    between atoms: _106  and  _107
REMARK   43  A    between atoms: _106  and  _109
REMARK   44  A    between atoms: _109  and  _110
REMARK   45  A    between atoms: _115  and  _116
REMARK   46  A    between atoms: _119  and  _120
REMARK   47  A    between atoms: _125  and  _127
REMARK   48  A    between atoms: _127  and  _128
REMARK   49  A    between atoms: _127  and  _130
REMARK   50  A    between atoms: _130  and  _131
REMARK   51  A    between atoms: _136  and  _138
REMARK   52  A    between atoms: _138  and  _139
REMARK   53  A    between atoms: _138  and  _141
REMARK   54  A    between atoms: _141  and  _142
REMARK   55  A    between atoms: _145  and  _147
REMARK   56  A    between atoms: _147  and  _148
REMARK   57  A    between atoms: _147  and  _150
REMARK   58  A    between atoms: _150  and  _151
REMARK   59  A    between atoms: _156  and  _158
REMARK   60  A    between atoms: _158  and  _159
REMARK   61  A    between atoms: _158  and  _161
REMARK   62  A    between atoms: _161  and  _162
REMARK   63  A    between atoms: _168  and  _170
REMARK   64  A    between atoms: _170  and  _171
REMARK   65  A    between atoms: _170  and  _173
REMARK   66  A    between atoms: _173  and  _174
REMARK   67  A    between atoms: _180  and  _182
REMARK   68  A    between atoms: _182  and  _183
REMARK   69  A    between atoms: _182  and  _185
REMARK   70  A    between atoms: _185  and  _186
REMARK   71  A    between atoms: _186  and  _187
REMARK   72  A    between atoms: _190  and  _192
REMARK   73  A    between atoms: _192  and  _193
REMARK   74  A    between atoms: _195  and  _197
REMARK   75  A    between atoms: _197  and  _198
REMARK   76  A    between atoms: _197  and  _200
REMARK   77  A    between atoms: _200  and  _201
REMARK   78  A    between atoms: _201  and  _202
REMARK   79  A    between atoms: _202  and  _203
REMARK   80  A    between atoms: _203  and  _204
REMARK   81  A    between atoms: _208  and  _210
REMARK   82  A    between atoms: _210  and  _211
REMARK   83  A    between atoms: _210  and  _213
REMARK   84  A    between atoms: _213  and  _214
REMARK   85  A    between atoms: _214  and  _215
REMARK   86  A    between atoms: _215  and  _216
REMARK   87  A    between atoms: _225  and  _227
REMARK   88  A    between atoms: _227  and  _228
REMARK   89  A    between atoms: _227  and  _230
REMARK   90  A    between atoms: _230  and  _231
REMARK   91  A    between atoms: _231  and  _232
REMARK   92  A    between atoms: _235  and  _237
REMARK   93  A    between atoms: _237  and  _238
REMARK   94  A    between atoms: _237  and  _240
REMARK   95  A    between atoms: _240  and  _241
REMARK   96  A    between atoms: _246  and  _248
REMARK   97  A    between atoms: _248  and  _249
REMARK   98  A    between atoms: _248  and  _251
REMARK   99  A    between atoms: _251  and  _252
REMARK  100  A    between atoms: _255  and  _257
REMARK  101  A    between atoms: _257  and  _258
REMARK  102  A    between atoms: _257  and  _260
REMARK  103  A    between atoms: _260  and  _261
REMARK  104  A    between atoms: _264  and  _266
REMARK  105  A    between atoms: _266  and  _267
REMARK  106  A    between atoms: _266  and  _269
REMARK  107  A    between atoms: _269  and  _270
REMARK  108  A    between atoms: _275  and  _277
REMARK  109  A    between atoms: _277  and  _278
REMARK  110  A    between atoms: _277  and  _280
REMARK  111  A    between atoms: _280  and  _281
REMARK  112  A    between atoms: _284  and  _286
REMARK  113  A    between atoms: _286  and  _287
REMARK  114  A    between atoms: _286  and  _289
REMARK  115  A    between atoms: _289  and  _290
REMARK  116  A    between atoms: _295  and  _297
REMARK  117  A    between atoms: _297  and  _298
REMARK  118  A    between atoms: _297  and  _300
REMARK  119  A    between atoms: _300  and  _301
REMARK  120  A    between atoms: _306  and  _308
REMARK  121  A    between atoms: _308  and  _309
REMARK  122  A    between atoms: _308  and  _311
REMARK  123  A    between atoms: _311  and  _312
REMARK  124  A    between atoms: _315  and  _317
REMARK  125  A    between atoms: _317  and  _318
REMARK  126  A    between atoms: _317  and  _320
REMARK  127  A    between atoms: _323  and  _325
REMARK  128  A    between atoms: _325  and  _326
REMARK  129  A    between atoms: _325  and  _328
REMARK  130  A    between atoms: _328  and  _329
REMARK  131  A    between atoms: _333  and  _334
REMARK  132  A    between atoms: _339  and  _341
REMARK  133  A    between atoms: _341  and  _342
REMARK  134  A    between atoms: _341  and  _344
REMARK  135  A    between atoms: _344  and  _345
REMARK  136  A    between atoms: _345  and  _346
REMARK  137  A    between atoms: _349  and  _351
REMARK  138  A    between atoms: _351  and  _352
REMARK  139  A    between atoms: _355  and  _357
REMARK  140  A    between atoms: _357  and  _358
REMARK  141  A    between atoms: _357  and  _360
REMARK  142  A    between atoms: _360  and  _361
REMARK  143  A    between atoms: _364  and  _366
REMARK  144  A    between atoms: _366  and  _367
REMARK  145  A    between atoms: _366  and  _369
REMARK  146  A    between atoms: _369  and  _370
REMARK  147  A    between atoms: _370  and  _371
REMARK  148  A    between atoms: _374  and  _376
REMARK  149  A    between atoms: _376  and  _377
REMARK  150  A    between atoms: _376  and  _379
REMARK  151  A    between atoms: _379  and  _380
REMARK  152  A    between atoms: _385  and  _387
REMARK  153  A    between atoms: _387  and  _388
REMARK  154  A    between atoms: _390  and  _392
REMARK  155  A    between atoms: _392  and  _393
REMARK  156  A    between atoms: _392  and  _395
REMARK  157  A    between atoms: _398  and  _400
REMARK  158  A    between atoms: _400  and  _401
REMARK  159  A    between atoms: _404  and  _406
REMARK  160  A    between atoms: _406  and  _407
REMARK  161  A    between atoms: _406  and  _409
REMARK  162  A    between atoms: _409  and  _410
REMARK  163  A    between atoms: _415  and  _417
REMARK  164  A    between atoms: _417  and  _418
REMARK  165  A    between atoms: _417  and  _420
REMARK  166  A    between atoms: _420  and  _421
REMARK  167  A    between atoms: _421  and  _422
REMARK  168  A    between atoms: _422  and  _423
REMARK  169  A    between atoms: _423  and  _424
REMARK  170  A    between atoms: _428  and  _430
REMARK  171  A    between atoms: _430  and  _431
REMARK  172  A    between atoms: _430  and  _433
REMARK  173  A    between atoms: _433  and  _434
REMARK  174  A    between atoms: _437  and  _439
REMARK  175  A    between atoms: _439  and  _440
REMARK  176  A    between atoms: _439  and  _442
REMARK  177  A    between atoms: _442  and  _443
REMARK  178  A    between atoms: _448  and  _450
REMARK  179  A    between atoms: _450  and  _451
REMARK  180  A    between atoms: _453  and  _455
REMARK  181  A    between atoms: _455  and  _456
REMARK  182  A    between atoms: _455  and  _458
REMARK  183  A    between atoms: _458  and  _459
REMARK  184  A    between atoms: _459  and  _460
REMARK  185  A    between atoms: _460  and  _461
REMARK  186  A    between atoms: _461  and  _462
REMARK  187  A    between atoms: _466  and  _468
REMARK  188  A    between atoms: _468  and  _469
REMARK  189  A    between atoms: _468  and  _471
REMARK  190  A    between atoms: _471  and  _472
REMARK  191  A    between atoms: _472  and  _473
REMARK  192  A    between atoms: _473  and  _474
REMARK  193  A    between atoms: _483  and  _485
REMARK  194  A    between atoms: _485  and  _486
REMARK  195  A    between atoms: _485  and  _488
REMARK  196  A    between atoms: _488  and  _489
REMARK  197  A    between atoms: _494  and  _496
REMARK  198  A    between atoms: _496  and  _497
REMARK  199  A    between atoms: _496  and  _499
REMARK  200  A    between atoms: _499  and  _500
REMARK  201  A    between atoms: _505  and  _506
REMARK  202  A    between atoms: _508  and  _510
REMARK  203  A    between atoms: _510  and  _511
REMARK  204  A    between atoms: _510  and  _513
REMARK  205  A    between atoms: _513  and  _514
REMARK  206  A    between atoms: _514  and  _515
REMARK  207  A    between atoms: _515  and  _516
REMARK  208  A    between atoms: _516  and  _517
REMARK  209  A    between atoms: _521  and  _523
REMARK  210  A    between atoms: _523  and  _524
REMARK  211  A    between atoms: _523  and  _526
REMARK  212  A    between atoms: _526  and  _527
REMARK  213  A    between atoms: _529  and  _531
REMARK  214  A    between atoms: _531  and  _532
REMARK  215  A    between atoms: _531  and  _534
REMARK  216  A    between atoms: _534  and  _535
REMARK  217  A    between atoms: _538  and  _540
REMARK  218  A    between atoms: _540  and  _541
REMARK  219  A    between atoms: _540  and  _543
REMARK  220  A    between atoms: _543  and  _544
REMARK  221  A    between atoms: _544  and  _545
REMARK  222  A    between atoms: _548  and  _550
REMARK  223  A    between atoms: _550  and  _551
REMARK  224  A    between atoms: _554  and  _556
REMARK  225  A    between atoms: _556  and  _557
REMARK  226  A    between atoms: _556  and  _559
REMARK  227  A    between atoms: _559  and  _560
REMARK  228  A    between atoms: _562  and  _564
REMARK  229  A    between atoms: _564  and  _565
REMARK  230  A    between atoms: _567  and  _569
REMARK  231  A    between atoms: _569  and  _570
REMARK  232  A    between atoms: _569  and  _572
REMARK  233  A    between atoms: _572  and  _573
REMARK  234  A    between atoms: _576  and  _578
REMARK  235  A    between atoms: _578  and  _579
REMARK  236  A    between atoms: _581  and  _583
REMARK  237  A    between atoms: _583  and  _584
REMARK  238  A    between atoms: _583  and  _586
REMARK  239  A    between atoms: _586  and  _587
REMARK  240  A    between atoms: _592  and  _594
REMARK  241  A    between atoms: _594  and  _595
REMARK  242  A    between atoms: _594  and  _597
REMARK  243  A    between atoms: _597  and  _598
REMARK  244  A    between atoms: _598  and  _599
REMARK  245  A    between atoms: _606  and  _607
REMARK  246  A    between atoms: _607  and  _623
REMARK  247  A    between atoms: _608  and  _610
REMARK  248  A    between atoms: _610  and  _611
REMARK  249  A    between atoms: _611  and  _612
REMARK  250  A    between atoms: _616  and  _618
REMARK  251  A    between atoms: _618  and  _619
REMARK  252  A    between atoms: _618  and  _626
REMARK  253  A    between atoms: _619  and  _620
REMARK  254  A    between atoms: _620  and  _621
REMARK  255  A    between atoms: _621  and  _622
REMARK  256  A    between atoms: _622  and  _623
REMARK  257  A    between atoms: _628  and  _630
REMARK  258  A    between atoms: _630  and  _631
REMARK  259  A    between atoms: _630  and  _633
REMARK  260  A    between atoms: _633  and  _634
REMARK  261  A    between atoms: _637  and  _639
REMARK  262  A    between atoms: _639  and  _640
REMARK  263  A    between atoms: _642  and  _644
REMARK  264  A    between atoms: _644  and  _645
REMARK  265  A    between atoms: _648  and  _650
REMARK  266  A    between atoms: _650  and  _651
REMARK  267  A    between atoms: _650  and  _653
REMARK  268  A    between atoms: _653  and  _654
REMARK  269  A    between atoms: _659  and  _660
REMARK                            x       y       z     vdW  Elec       q    Type
REMARK                         _______ _______ _______ _____ _____    ______ ____
ROOT
ATOM      1  O   HOH     1      28.656  23.452  18.891  0.00  0.00    +0.000 OA
ENDROOT
TORSDOF 0
REMARK  Name = ../refined-set-2016/2pyi/2pyi_pocket.pdb
REMARK  269 active torsions:
REMARK  status: ('A' for Active; 'I' for Inactive)
REMARK    1  A    between atoms: _1  and  _3
REMARK    2  A    between atoms: _3  and  _4
REMARK    3  A    between atoms: _3  and  _6
REMARK    4  A    between atoms: _6  and  _7
REMARK    5  A    between atoms: _12  and  _13
REMARK    6  A    between atoms: _15  and  _17
REMARK    7  A    between atoms: _17  and  _18
REMARK    8  A    between atoms: _17  and  _20
REMARK    9  A    between atoms: _20  and  _21
REMARK   10  A    between atoms: _21  and  _22
REMARK   11  A    between atoms: _25  and  _27
REMARK   12  A    between atoms: _27  and  _28
REMARK   13  A    between atoms: _27  and  _30
REMARK   14  A    between atoms: _30  and  _31
REMARK   15  A    between atoms: _36  and  _38
REMARK   16  A    between atoms: _38  and  _39
REMARK   17  A    between atoms: _41  and  _43
REMARK   18  A    between atoms: _43  and  _44
REMARK   19  A    between atoms: _46  and  _48
REMARK   20  A    between atoms: _48  and  _49
REMARK   21  A    between atoms: _48  and  _51
REMARK   22  A    between atoms: _51  and  _52
REMARK   23  A    between atoms: _55  and  _57
REMARK   24  A    between atoms: _57  and  _58
REMARK   25  A    between atoms: _60  and  _62
REMARK   26  A    between atoms: _62  and  _63
REMARK   27  A    between atoms: _62  and  _65
REMARK   28  A    between atoms: _65  and  _66
REMARK   29  A    between atoms: _66  and  _67
REMARK   30  A    between atoms: _67  and  _68
REMARK   31  A    between atoms: _77  and  _79
REMARK   32  A    between atoms: _79  and  _80
REMARK   33  A    between atoms: _79  and  _82
REMARK   34  A    between atoms: _82  and  _83
REMARK   35  A    between atoms: _86  and  _88
REMARK   36  A    between atoms: _88  and  _89
REMARK   37  A    between atoms: _92  and  _94
REMARK   38  A    between atoms: _94  and  _95
REMARK   39  A    between atoms: _94  and  _97
REMARK   40  A    between atoms: _97  and  _98
REMARK   41  A    between atoms: _104  and  _106
REMARK   42  A    between atoms: _106  and  _107
REMARK   43  A    between atoms: _106  and  _109
REMARK   44  A    between atoms: _109  and  _110
REMARK   45  A    between atoms: _115  and  _116
REMARK   46  A    between atoms: _119  and  _120
REMARK   47  A    between atoms: _125  and  _127
REMARK   48  A    between atoms: _127  and  _128
REMARK   49  A    between atoms: _127  and  _130
REMARK   50  A    between atoms: _130  and  _131
REMARK   51  A    between atoms: _136  and  _138
REMARK   52  A    between atoms: _138  and  _139
REMARK   53  A    between atoms: _138  and  _141
REMARK   54  A    between atoms: _141  and  _142
REMARK   55  A    between atoms: _145  and  _147
REMARK   56  A    between atoms: _147  and  _148
REMARK   57  A    between atoms: _147  and  _150
REMARK   58  A    between atoms: _150  and  _151
REMARK   59  A    between atoms: _156  and  _158
REMARK   60  A    between atoms: _158  and  _159
REMARK   61  A    between atoms: _158  and  _161
REMARK   62  A    between atoms: _161  and  _162
REMARK   63  A    between atoms: _168  and  _170
REMARK   64  A    between atoms: _170  and  _171
REMARK   65  A    between atoms: _170  and  _173
REMARK   66  A    between atoms: _173  and  _174
REMARK   67  A    between atoms: _180  and  _182
REMARK   68  A    between atoms: _182  and  _183
REMARK   69  A    between atoms: _182  and  _185
REMARK   70  A    between atoms: _185  and  _186
REMARK   71  A    between atoms: _186  and  _187
REMARK   72  A    between atoms: _190  and  _192
REMARK   73  A    between atoms: _192  and  _193
REMARK   74  A    between atoms: _195  and  _197
REMARK   75  A    between atoms: _197  and  _198
REMARK   76  A    between atoms: _197  and  _200
REMARK   77  A    between atoms: _200  and  _201
REMARK   78  A    between atoms: _201  and  _202
REMARK   79  A    between atoms: _202  and  _203
REMARK   80  A    between atoms: _203  and  _204
REMARK   81  A    between atoms: _208  and  _210
REMARK   82  A    between atoms: _210  and  _211
REMARK   83  A    between atoms: _210  and  _213
REMARK   84  A    between atoms: _213  and  _214
REMARK   85  A    between atoms: _214  and  _215
REMARK   86  A    between atoms: _215  and  _216
REMARK   87  A    between atoms: _225  and  _227
REMARK   88  A    between atoms: _227  and  _228
REMARK   89  A    between atoms: _227  and  _230
REMARK   90  A    between atoms: _230  and  _231
REMARK   91  A    between atoms: _231  and  _232
REMARK   92  A    between atoms: _235  and  _237
REMARK   93  A    between atoms: _237  and  _238
REMARK   94  A    between atoms: _237  and  _240
REMARK   95  A    between atoms: _240  and  _241
REMARK   96  A    between atoms: _246  and  _248
REMARK   97  A    between atoms: _248  and  _249
REMARK   98  A    between atoms: _248  and  _251
REMARK   99  A    between atoms: _251  and  _252
REMARK  100  A    between atoms: _255  and  _257
REMARK  101  A    between atoms: _257  and  _258
REMARK  102  A    between atoms: _257  and  _260
REMARK  103  A    between atoms: _260  and  _261
REMARK  104  A    between atoms: _264  and  _266
REMARK  105  A    between atoms: _266  and  _267
REMARK  106  A    between atoms: _266  and  _269
REMARK  107  A    between atoms: _269  and  _270
REMARK  108  A    between atoms: _275  and  _277
REMARK  109  A    between atoms: _277  and  _278
REMARK  110  A    between atoms: _277  and  _280
REMARK  111  A    between atoms: _280  and  _281
REMARK  112  A    between atoms: _284  and  _286
REMARK  113  A    between atoms: _286  and  _287
REMARK  114  A    between atoms: _286  and  _289
REMARK  115  A    between atoms: _289  and  _290
REMARK  116  A    between atoms: _295  and  _297
REMARK  117  A    between atoms: _297  and  _298
REMARK  118  A    between atoms: _297  and  _300
REMARK  119  A    between atoms: _300  and  _301
REMARK  120  A    between atoms: _306  and  _308
REMARK  121  A    between atoms: _308  and  _309
REMARK  122  A    between atoms: _308  and  _311
REMARK  123  A    between atoms: _311  and  _312
REMARK  124  A    between atoms: _315  and  _317
REMARK  125  A    between atoms: _317  and  _318
REMARK  126  A    between atoms: _317  and  _320
REMARK  127  A    between atoms: _323  and  _325
REMARK  128  A    between atoms: _325  and  _326
REMARK  129  A    between atoms: _325  and  _328
REMARK  130  A    between atoms: _328  and  _329
REMARK  131  A    between atoms: _333  and  _334
REMARK  132  A    between atoms: _339  and  _341
REMARK  133  A    between atoms: _341  and  _342
REMARK  134  A    between atoms: _341  and  _344
REMARK  135  A    between atoms: _344  and  _345
REMARK  136  A    between atoms: _345  and  _346
REMARK  137  A    between atoms: _349  and  _351
REMARK  138  A    between atoms: _351  and  _352
REMARK  139  A    between atoms: _355  and  _357
REMARK  140  A    between atoms: _357  and  _358
REMARK  141  A    between atoms: _357  and  _360
REMARK  142  A    between atoms: _360  and  _361
REMARK  143  A    between atoms: _364  and  _366
REMARK  144  A    between atoms: _366  and  _367
REMARK  145  A    between atoms: _366  and  _369
REMARK  146  A    between atoms: _369  and  _370
REMARK  147  A    between atoms: _370  and  _371
REMARK  148  A    between atoms: _374  and  _376
REMARK  149  A    between atoms: _376  and  _377
REMARK  150  A    between atoms: _376  and  _379
REMARK  151  A    between atoms: _379  and  _380
REMARK  152  A    between atoms: _385  and  _387
REMARK  153  A    between atoms: _387  and  _388
REMARK  154  A    between atoms: _390  and  _392
REMARK  155  A    between atoms: _392  and  _393
REMARK  156  A    between atoms: _392  and  _395
REMARK  157  A    between atoms: _398  and  _400
REMARK  158  A    between atoms: _400  and  _401
REMARK  159  A    between atoms: _404  and  _406
REMARK  160  A    between atoms: _406  and  _407
REMARK  161  A    between atoms: _406  and  _409
REMARK  162  A    between atoms: _409  and  _410
REMARK  163  A    between atoms: _415  and  _417
REMARK  164  A    between atoms: _417  and  _418
REMARK  165  A    between atoms: _417  and  _420
REMARK  166  A    between atoms: _420  and  _421
REMARK  167  A    between atoms: _421  and  _422
REMARK  168  A    between atoms: _422  and  _423
REMARK  169  A    between atoms: _423  and  _424
REMARK  170  A    between atoms: _428  and  _430
REMARK  171  A    between atoms: _430  and  _431
REMARK  172  A    between atoms: _430  and  _433
REMARK  173  A    between atoms: _433  and  _434
REMARK  174  A    between atoms: _437  and  _439
REMARK  175  A    between atoms: _439  and  _440
REMARK  176  A    between atoms: _439  and  _442
REMARK  177  A    between atoms: _442  and  _443
REMARK  178  A    between atoms: _448  and  _450
REMARK  179  A    between atoms: _450  and  _451
REMARK  180  A    between atoms: _453  and  _455
REMARK  181  A    between atoms: _455  and  _456
REMARK  182  A    between atoms: _455  and  _458
REMARK  183  A    between atoms: _458  and  _459
REMARK  184  A    between atoms: _459  and  _460
REMARK  185  A    between atoms: _460  and  _461
REMARK  186  A    between atoms: _461  and  _462
REMARK  187  A    between atoms: _466  and  _468
REMARK  188  A    between atoms: _468  and  _469
REMARK  189  A    between atoms: _468  and  _471
REMARK  190  A    between atoms: _471  and  _472
REMARK  191  A    between atoms: _472  and  _473
REMARK  192  A    between atoms: _473  and  _474
REMARK  193  A    between atoms: _483  and  _485
REMARK  194  A    between atoms: _485  and  _486
REMARK  195  A    between atoms: _485  and  _488
REMARK  196  A    between atoms: _488  and  _489
REMARK  197  A    between atoms: _494  and  _496
REMARK  198  A    between atoms: _496  and  _497
REMARK  199  A    between atoms: _496  and  _499
REMARK  200  A    between atoms: _499  and  _500
REMARK  201  A    between atoms: _505  and  _506
REMARK  202  A    between atoms: _508  and  _510
REMARK  203  A    between atoms: _510  and  _511
REMARK  204  A    between atoms: _510  and  _513
REMARK  205  A    between atoms: _513  and  _514
REMARK  206  A    between atoms: _514  and  _515
REMARK  207  A    between atoms: _515  and  _516
REMARK  208  A    between atoms: _516  and  _517
REMARK  209  A    between atoms: _521  and  _523
REMARK  210  A    between atoms: _523  and  _524
REMARK  211  A    between atoms: _523  and  _526
REMARK  212  A    between atoms: _526  and  _527
REMARK  213  A    between atoms: _529  and  _531
REMARK  214  A    between atoms: _531  and  _532
REMARK  215  A    between atoms: _531  and  _534
REMARK  216  A    between atoms: _534  and  _535
REMARK  217  A    between atoms: _538  and  _540
REMARK  218  A    between atoms: _540  and  _541
REMARK  219  A    between atoms: _540  and  _543
REMARK  220  A    between atoms: _543  and  _544
REMARK  221  A    between atoms: _544  and  _545
REMARK  222  A    between atoms: _548  and  _550
REMARK  223  A    between atoms: _550  and  _551
REMARK  224  A    between atoms: _554  and  _556
REMARK  225  A    between atoms: _556  and  _557
REMARK  226  A    between atoms: _556  and  _559
REMARK  227  A    between atoms: _559  and  _560
REMARK  228  A    between atoms: _562  and  _564
REMARK  229  A    between atoms: _564  and  _565
REMARK  230  A    between atoms: _567  and  _569
REMARK  231  A    between atoms: _569  and  _570
REMARK  232  A    between atoms: _569  and  _572
REMARK  233  A    between atoms: _572  and  _573
REMARK  234  A    between atoms: _576  and  _578
REMARK  235  A    between atoms: _578  and  _579
REMARK  236  A    between atoms: _581  and  _583
REMARK  237  A    between atoms: _583  and  _584
REMARK  238  A    between atoms: _583  and  _586
REMARK  239  A    between atoms: _586  and  _587
REMARK  240  A    between atoms: _592  and  _594
REMARK  241  A    between atoms: _594  and  _595
REMARK  242  A    between atoms: _594  and  _597
REMARK  243  A    between atoms: _597  and  _598
REMARK  244  A    between atoms: _598  and  _599
REMARK  245  A    between atoms: _606  and  _607
REMARK  246  A    between atoms: _607  and  _623
REMARK  247  A    between atoms: _608  and  _610
REMARK  248  A    between atoms: _610  and  _611
REMARK  249  A    between atoms: _611  and  _612
REMARK  250  A    between atoms: _616  and  _618
REMARK  251  A    between atoms: _618  and  _619
REMARK  252  A    between atoms: _618  and  _626
REMARK  253  A    between atoms: _619  and  _620
REMARK  254  A    between atoms: _620  and  _621
REMARK  255  A    between atoms: _621  and  _622
REMARK  256  A    between atoms: _622  and  _623
REMARK  257  A    between atoms: _628  and  _630
REMARK  258  A    between atoms: _630  and  _631
REMARK  259  A    between atoms: _630  and  _633
REMARK  260  A    between atoms: _633  and  _634
REMARK  261  A    between atoms: _637  and  _639
REMARK  262  A    between atoms: _639  and  _640
REMARK  263  A    between atoms: _642  and  _644
REMARK  264  A    between atoms: _644  and  _645
REMARK  265  A    between atoms: _648  and  _650
REMARK  266  A    between atoms: _650  and  _651
REMARK  267  A    between atoms: _650  and  _653
REMARK  268  A    between atoms: _653  and  _654
REMARK  269  A    between atoms: _659  and  _660
REMARK                            x       y       z     vdW  Elec       q    Type
REMARK                         _______ _______ _______ _____ _____    ______ ____
ROOT
ATOM      1  O   HOH     1      29.032  25.870  17.960  0.00  0.00    +0.000 OA
ENDROOT
TORSDOF 0
REMARK  Name = ../refined-set-2016/2pyi/2pyi_pocket.pdb
REMARK  269 active torsions:
REMARK  status: ('A' for Active; 'I' for Inactive)
REMARK    1  A    between atoms: _1  and  _3
REMARK    2  A    between atoms: _3  and  _4
REMARK    3  A    between atoms: _3  and  _6
REMARK    4  A    between atoms: _6  and  _7
REMARK    5  A    between atoms: _12  and  _13
REMARK    6  A    between atoms: _15  and  _17
REMARK    7  A    between atoms: _17  and  _18
REMARK    8  A    between atoms: _17  and  _20
REMARK    9  A    between atoms: _20  and  _21
REMARK   10  A    between atoms: _21  and  _22
REMARK   11  A    between atoms: _25  and  _27
REMARK   12  A    between atoms: _27  and  _28
REMARK   13  A    between atoms: _27  and  _30
REMARK   14  A    between atoms: _30  and  _31
REMARK   15  A    between atoms: _36  and  _38
REMARK   16  A    between atoms: _38  and  _39
REMARK   17  A    between atoms: _41  and  _43
REMARK   18  A    between atoms: _43  and  _44
REMARK   19  A    between atoms: _46  and  _48
REMARK   20  A    between atoms: _48  and  _49
REMARK   21  A    between atoms: _48  and  _51
REMARK   22  A    between atoms: _51  and  _52
REMARK   23  A    between atoms: _55  and  _57
REMARK   24  A    between atoms: _57  and  _58
REMARK   25  A    between atoms: _60  and  _62
REMARK   26  A    between atoms: _62  and  _63
REMARK   27  A    between atoms: _62  and  _65
REMARK   28  A    between atoms: _65  and  _66
REMARK   29  A    between atoms: _66  and  _67
REMARK   30  A    between atoms: _67  and  _68
REMARK   31  A    between atoms: _77  and  _79
REMARK   32  A    between atoms: _79  and  _80
REMARK   33  A    between atoms: _79  and  _82
REMARK   34  A    between atoms: _82  and  _83
REMARK   35  A    between atoms: _86  and  _88
REMARK   36  A    between atoms: _88  and  _89
REMARK   37  A    between atoms: _92  and  _94
REMARK   38  A    between atoms: _94  and  _95
REMARK   39  A    between atoms: _94  and  _97
REMARK   40  A    between atoms: _97  and  _98
REMARK   41  A    between atoms: _104  and  _106
REMARK   42  A    between atoms: _106  and  _107
REMARK   43  A    between atoms: _106  and  _109
REMARK   44  A    between atoms: _109  and  _110
REMARK   45  A    between atoms: _115  and  _116
REMARK   46  A    between atoms: _119  and  _120
REMARK   47  A    between atoms: _125  and  _127
REMARK   48  A    between atoms: _127  and  _128
REMARK   49  A    between atoms: _127  and  _130
REMARK   50  A    between atoms: _130  and  _131
REMARK   51  A    between atoms: _136  and  _138
REMARK   52  A    between atoms: _138  and  _139
REMARK   53  A    between atoms: _138  and  _141
REMARK   54  A    between atoms: _141  and  _142
REMARK   55  A    between atoms: _145  and  _147
REMARK   56  A    between atoms: _147  and  _148
REMARK   57  A    between atoms: _147  and  _150
REMARK   58  A    between atoms: _150  and  _151
REMARK   59  A    between atoms: _156  and  _158
REMARK   60  A    between atoms: _158  and  _159
REMARK   61  A    between atoms: _158  and  _161
REMARK   62  A    between atoms: _161  and  _162
REMARK   63  A    between atoms: _168  and  _170
REMARK   64  A    between atoms: _170  and  _171
REMARK   65  A    between atoms: _170  and  _173
REMARK   66  A    between atoms: _173  and  _174
REMARK   67  A    between atoms: _180  and  _182
REMARK   68  A    between atoms: _182  and  _183
REMARK   69  A    between atoms: _182  and  _185
REMARK   70  A    between atoms: _185  and  _186
REMARK   71  A    between atoms: _186  and  _187
REMARK   72  A    between atoms: _190  and  _192
REMARK   73  A    between atoms: _192  and  _193
REMARK   74  A    between atoms: _195  and  _197
REMARK   75  A    between atoms: _197  and  _198
REMARK   76  A    between atoms: _197  and  _200
REMARK   77  A    between atoms: _200  and  _201
REMARK   78  A    between atoms: _201  and  _202
REMARK   79  A    between atoms: _202  and  _203
REMARK   80  A    between atoms: _203  and  _204
REMARK   81  A    between atoms: _208  and  _210
REMARK   82  A    between atoms: _210  and  _211
REMARK   83  A    between atoms: _210  and  _213
REMARK   84  A    between atoms: _213  and  _214
REMARK   85  A    between atoms: _214  and  _215
REMARK   86  A    between atoms: _215  and  _216
REMARK   87  A    between atoms: _225  and  _227
REMARK   88  A    between atoms: _227  and  _228
REMARK   89  A    between atoms: _227  and  _230
REMARK   90  A    between atoms: _230  and  _231
REMARK   91  A    between atoms: _231  and  _232
REMARK   92  A    between atoms: _235  and  _237
REMARK   93  A    between atoms: _237  and  _238
REMARK   94  A    between atoms: _237  and  _240
REMARK   95  A    between atoms: _240  and  _241
REMARK   96  A    between atoms: _246  and  _248
REMARK   97  A    between atoms: _248  and  _249
REMARK   98  A    between atoms: _248  and  _251
REMARK   99  A    between atoms: _251  and  _252
REMARK  100  A    between atoms: _255  and  _257
REMARK  101  A    between atoms: _257  and  _258
REMARK  102  A    between atoms: _257  and  _260
REMARK  103  A    between atoms: _260  and  _261
REMARK  104  A    between atoms: _264  and  _266
REMARK  105  A    between atoms: _266  and  _267
REMARK  106  A    between atoms: _266  and  _269
REMARK  107  A    between atoms: _269  and  _270
REMARK  108  A    between atoms: _275  and  _277
REMARK  109  A    between atoms: _277  and  _278
REMARK  110  A    between atoms: _277  and  _280
REMARK  111  A    between atoms: _280  and  _281
REMARK  112  A    between atoms: _284  and  _286
REMARK  113  A    between atoms: _286  and  _287
REMARK  114  A    between atoms: _286  and  _289
REMARK  115  A    between atoms: _289  and  _290
REMARK  116  A    between atoms: _295  and  _297
REMARK  117  A    between atoms: _297  and  _298
REMARK  118  A    between atoms: _297  and  _300
REMARK  119  A    between atoms: _300  and  _301
REMARK  120  A    between atoms: _306  and  _308
REMARK  121  A    between atoms: _308  and  _309
REMARK  122  A    between atoms: _308  and  _311
REMARK  123  A    between atoms: _311  and  _312
REMARK  124  A    between atoms: _315  and  _317
REMARK  125  A    between atoms: _317  and  _318
REMARK  126  A    between atoms: _317  and  _320
REMARK  127  A    between atoms: _323  and  _325
REMARK  128  A    between atoms: _325  and  _326
REMARK  129  A    between atoms: _325  and  _328
REMARK  130  A    between atoms: _328  and  _329
REMARK  131  A    between atoms: _333  and  _334
REMARK  132  A    between atoms: _339  and  _341
REMARK  133  A    between atoms: _341  and  _342
REMARK  134  A    between atoms: _341  and  _344
REMARK  135  A    between atoms: _344  and  _345
REMARK  136  A    between atoms: _345  and  _346
REMARK  137  A    between atoms: _349  and  _351
REMARK  138  A    between atoms: _351  and  _352
REMARK  139  A    between atoms: _355  and  _357
REMARK  140  A    between atoms: _357  and  _358
REMARK  141  A    between atoms: _357  and  _360
REMARK  142  A    between atoms: _360  and  _361
REMARK  143  A    between atoms: _364  and  _366
REMARK  144  A    between atoms: _366  and  _367
REMARK  145  A    between atoms: _366  and  _369
REMARK  146  A    between atoms: _369  and  _370
REMARK  147  A    between atoms: _370  and  _371
REMARK  148  A    between atoms: _374  and  _376
REMARK  149  A    between atoms: _376  and  _377
REMARK  150  A    between atoms: _376  and  _379
REMARK  151  A    between atoms: _379  and  _380
REMARK  152  A    between atoms: _385  and  _387
REMARK  153  A    between atoms: _387  and  _388
REMARK  154  A    between atoms: _390  and  _392
REMARK  155  A    between atoms: _392  and  _393
REMARK  156  A    between atoms: _392  and  _395
REMARK  157  A    between atoms: _398  and  _400
REMARK  158  A    between atoms: _400  and  _401
REMARK  159  A    between atoms: _404  and  _406
REMARK  160  A    between atoms: _406  and  _407
REMARK  161  A    between atoms: _406  and  _409
REMARK  162  A    between atoms: _409  and  _410
REMARK  163  A    between atoms: _415  and  _417
REMARK  164  A    between atoms: _417  and  _418
REMARK  165  A    between atoms: _417  and  _420
REMARK  166  A    between atoms: _420  and  _421
REMARK  167  A    between atoms: _421  and  _422
REMARK  168  A    between atoms: _422  and  _423
REMARK  169  A    between atoms: _423  and  _424
REMARK  170  A    between atoms: _428  and  _430
REMARK  171  A    between atoms: _430  and  _431
REMARK  172  A    between atoms: _430  and  _433
REMARK  173  A    between atoms: _433  and  _434
REMARK  174  A    between atoms: _437  and  _439
REMARK  175  A    between atoms: _439  and  _440
REMARK  176  A    between atoms: _439  and  _442
REMARK  177  A    between atoms: _442  and  _443
REMARK  178  A    between atoms: _448  and  _450
REMARK  179  A    between atoms: _450  and  _451
REMARK  180  A    between atoms: _453  and  _455
REMARK  181  A    between atoms: _455  and  _456
REMARK  182  A    between atoms: _455  and  _458
REMARK  183  A    between atoms: _458  and  _459
REMARK  184  A    between atoms: _459  and  _460
REMARK  185  A    between atoms: _460  and  _461
REMARK  186  A    between atoms: _461  and  _462
REMARK  187  A    between atoms: _466  and  _468
REMARK  188  A    between atoms: _468  and  _469
REMARK  189  A    between atoms: _468  and  _471
REMARK  190  A    between atoms: _471  and  _472
REMARK  191  A    between atoms: _472  and  _473
REMARK  192  A    between atoms: _473  and  _474
REMARK  193  A    between atoms: _483  and  _485
REMARK  194  A    between atoms: _485  and  _486
REMARK  195  A    between atoms: _485  and  _488
REMARK  196  A    between atoms: _488  and  _489
REMARK  197  A    between atoms: _494  and  _496
REMARK  198  A    between atoms: _496  and  _497
REMARK  199  A    between atoms: _496  and  _499
REMARK  200  A    between atoms: _499  and  _500
REMARK  201  A    between atoms: _505  and  _506
REMARK  202  A    between atoms: _508  and  _510
REMARK  203  A    between atoms: _510  and  _511
REMARK  204  A    between atoms: _510  and  _513
REMARK  205  A    between atoms: _513  and  _514
REMARK  206  A    between atoms: _514  and  _515
REMARK  207  A    between atoms: _515  and  _516
REMARK  208  A    between atoms: _516  and  _517
REMARK  209  A    between atoms: _521  and  _523
REMARK  210  A    between atoms: _523  and  _524
REMARK  211  A    between atoms: _523  and  _526
REMARK  212  A    between atoms: _526  and  _527
REMARK  213  A    between atoms: _529  and  _531
REMARK  214  A    between atoms: _531  and  _532
REMARK  215  A    between atoms: _531  and  _534
REMARK  216  A    between atoms: _534  and  _535
REMARK  217  A    between atoms: _538  and  _540
REMARK  218  A    between atoms: _540  and  _541
REMARK  219  A    between atoms: _540  and  _543
REMARK  220  A    between atoms: _543  and  _544
REMARK  221  A    between atoms: _544  and  _545
REMARK  222  A    between atoms: _548  and  _550
REMARK  223  A    between atoms: _550  and  _551
REMARK  224  A    between atoms: _554  and  _556
REMARK  225  A    between atoms: _556  and  _557
REMARK  226  A    between atoms: _556  and  _559
REMARK  227  A    between atoms: _559  and  _560
REMARK  228  A    between atoms: _562  and  _564
REMARK  229  A    between atoms: _564  and  _565
REMARK  230  A    between atoms: _567  and  _569
REMARK  231  A    between atoms: _569  and  _570
REMARK  232  A    between atoms: _569  and  _572
REMARK  233  A    between atoms: _572  and  _573
REMARK  234  A    between atoms: _576  and  _578
REMARK  235  A    between atoms: _578  and  _579
REMARK  236  A    between atoms: _581  and  _583
REMARK  237  A    between atoms: _583  and  _584
REMARK  238  A    between atoms: _583  and  _586
REMARK  239  A    between atoms: _586  and  _587
REMARK  240  A    between atoms: _592  and  _594
REMARK  241  A    between atoms: _594  and  _595
REMARK  242  A    between atoms: _594  and  _597
REMARK  243  A    between atoms: _597  and  _598
REMARK  244  A    between atoms: _598  and  _599
REMARK  245  A    between atoms: _606  and  _607
REMARK  246  A    between atoms: _607  and  _623
REMARK  247  A    between atoms: _608  and  _610
REMARK  248  A    between atoms: _610  and  _611
REMARK  249  A    between atoms: _611  and  _612
REMARK  250  A    between atoms: _616  and  _618
REMARK  251  A    between atoms: _618  and  _619
REMARK  252  A    between atoms: _618  and  _626
REMARK  253  A    between atoms: _619  and  _620
REMARK  254  A    between atoms: _620  and  _621
REMARK  255  A    between atoms: _621  and  _622
REMARK  256  A    between atoms: _622  and  _623
REMARK  257  A    between atoms: _628  and  _630
REMARK  258  A    between atoms: _630  and  _631
REMARK  259  A    between atoms: _630  and  _633
REMARK  260  A    between atoms: _633  and  _634
REMARK  261  A    between atoms: _637  and  _639
REMARK  262  A    between atoms: _639  and  _640
REMARK  263  A    between atoms: _642  and  _644
REMARK  264  A    between atoms: _644  and  _645
REMARK  265  A    between atoms: _648  and  _650
REMARK  266  A    between atoms: _650  and  _651
REMARK  267  A    between atoms: _650  and  _653
REMARK  268  A    between atoms: _653  and  _654
REMARK  269  A    between atoms: _659  and  _660
REMARK                            x       y       z     vdW  Elec       q    Type
REMARK                         _______ _______ _______ _____ _____    ______ ____
ROOT
ATOM      1  O   HOH     1      28.727  27.270  20.277  0.00  0.00    +0.000 OA
ENDROOT
TORSDOF 0
REMARK  Name = ../refined-set-2016/2pyi/2pyi_pocket.pdb
REMARK  269 active torsions:
REMARK  status: ('A' for Active; 'I' for Inactive)
REMARK    1  A    between atoms: _1  and  _3
REMARK    2  A    between atoms: _3  and  _4
REMARK    3  A    between atoms: _3  and  _6
REMARK    4  A    between atoms: _6  and  _7
REMARK    5  A    between atoms: _12  and  _13
REMARK    6  A    between atoms: _15  and  _17
REMARK    7  A    between atoms: _17  and  _18
REMARK    8  A    between atoms: _17  and  _20
REMARK    9  A    between atoms: _20  and  _21
REMARK   10  A    between atoms: _21  and  _22
REMARK   11  A    between atoms: _25  and  _27
REMARK   12  A    between atoms: _27  and  _28
REMARK   13  A    between atoms: _27  and  _30
REMARK   14  A    between atoms: _30  and  _31
REMARK   15  A    between atoms: _36  and  _38
REMARK   16  A    between atoms: _38  and  _39
REMARK   17  A    between atoms: _41  and  _43
REMARK   18  A    between atoms: _43  and  _44
REMARK   19  A    between atoms: _46  and  _48
REMARK   20  A    between atoms: _48  and  _49
REMARK   21  A    between atoms: _48  and  _51
REMARK   22  A    between atoms: _51  and  _52
REMARK   23  A    between atoms: _55  and  _57
REMARK   24  A    between atoms: _57  and  _58
REMARK   25  A    between atoms: _60  and  _62
REMARK   26  A    between atoms: _62  and  _63
REMARK   27  A    between atoms: _62  and  _65
REMARK   28  A    between atoms: _65  and  _66
REMARK   29  A    between atoms: _66  and  _67
REMARK   30  A    between atoms: _67  and  _68
REMARK   31  A    between atoms: _77  and  _79
REMARK   32  A    between atoms: _79  and  _80
REMARK   33  A    between atoms: _79  and  _82
REMARK   34  A    between atoms: _82  and  _83
REMARK   35  A    between atoms: _86  and  _88
REMARK   36  A    between atoms: _88  and  _89
REMARK   37  A    between atoms: _92  and  _94
REMARK   38  A    between atoms: _94  and  _95
REMARK   39  A    between atoms: _94  and  _97
REMARK   40  A    between atoms: _97  and  _98
REMARK   41  A    between atoms: _104  and  _106
REMARK   42  A    between atoms: _106  and  _107
REMARK   43  A    between atoms: _106  and  _109
REMARK   44  A    between atoms: _109  and  _110
REMARK   45  A    between atoms: _115  and  _116
REMARK   46  A    between atoms: _119  and  _120
REMARK   47  A    between atoms: _125  and  _127
REMARK   48  A    between atoms: _127  and  _128
REMARK   49  A    between atoms: _127  and  _130
REMARK   50  A    between atoms: _130  and  _131
REMARK   51  A    between atoms: _136  and  _138
REMARK   52  A    between atoms: _138  and  _139
REMARK   53  A    between atoms: _138  and  _141
REMARK   54  A    between atoms: _141  and  _142
REMARK   55  A    between atoms: _145  and  _147
REMARK   56  A    between atoms: _147  and  _148
REMARK   57  A    between atoms: _147  and  _150
REMARK   58  A    between atoms: _150  and  _151
REMARK   59  A    between atoms: _156  and  _158
REMARK   60  A    between atoms: _158  and  _159
REMARK   61  A    between atoms: _158  and  _161
REMARK   62  A    between atoms: _161  and  _162
REMARK   63  A    between atoms: _168  and  _170
REMARK   64  A    between atoms: _170  and  _171
REMARK   65  A    between atoms: _170  and  _173
REMARK   66  A    between atoms: _173  and  _174
REMARK   67  A    between atoms: _180  and  _182
REMARK   68  A    between atoms: _182  and  _183
REMARK   69  A    between atoms: _182  and  _185
REMARK   70  A    between atoms: _185  and  _186
REMARK   71  A    between atoms: _186  and  _187
REMARK   72  A    between atoms: _190  and  _192
REMARK   73  A    between atoms: _192  and  _193
REMARK   74  A    between atoms: _195  and  _197
REMARK   75  A    between atoms: _197  and  _198
REMARK   76  A    between atoms: _197  and  _200
REMARK   77  A    between atoms: _200  and  _201
REMARK   78  A    between atoms: _201  and  _202
REMARK   79  A    between atoms: _202  and  _203
REMARK   80  A    between atoms: _203  and  _204
REMARK   81  A    between atoms: _208  and  _210
REMARK   82  A    between atoms: _210  and  _211
REMARK   83  A    between atoms: _210  and  _213
REMARK   84  A    between atoms: _213  and  _214
REMARK   85  A    between atoms: _214  and  _215
REMARK   86  A    between atoms: _215  and  _216
REMARK   87  A    between atoms: _225  and  _227
REMARK   88  A    between atoms: _227  and  _228
REMARK   89  A    between atoms: _227  and  _230
REMARK   90  A    between atoms: _230  and  _231
REMARK   91  A    between atoms: _231  and  _232
REMARK   92  A    between atoms: _235  and  _237
REMARK   93  A    between atoms: _237  and  _238
REMARK   94  A    between atoms: _237  and  _240
REMARK   95  A    between atoms: _240  and  _241
REMARK   96  A    between atoms: _246  and  _248
REMARK   97  A    between atoms: _248  and  _249
REMARK   98  A    between atoms: _248  and  _251
REMARK   99  A    between atoms: _251  and  _252
REMARK  100  A    between atoms: _255  and  _257
REMARK  101  A    between atoms: _257  and  _258
REMARK  102  A    between atoms: _257  and  _260
REMARK  103  A    between atoms: _260  and  _261
REMARK  104  A    between atoms: _264  and  _266
REMARK  105  A    between atoms: _266  and  _267
REMARK  106  A    between atoms: _266  and  _269
REMARK  107  A    between atoms: _269  and  _270
REMARK  108  A    between atoms: _275  and  _277
REMARK  109  A    between atoms: _277  and  _278
REMARK  110  A    between atoms: _277  and  _280
REMARK  111  A    between atoms: _280  and  _281
REMARK  112  A    between atoms: _284  and  _286
REMARK  113  A    between atoms: _286  and  _287
REMARK  114  A    between atoms: _286  and  _289
REMARK  115  A    between atoms: _289  and  _290
REMARK  116  A    between atoms: _295  and  _297
REMARK  117  A    between atoms: _297  and  _298
REMARK  118  A    between atoms: _297  and  _300
REMARK  119  A    between atoms: _300  and  _301
REMARK  120  A    between atoms: _306  and  _308
REMARK  121  A    between atoms: _308  and  _309
REMARK  122  A    between atoms: _308  and  _311
REMARK  123  A    between atoms: _311  and  _312
REMARK  124  A    between atoms: _315  and  _317
REMARK  125  A    between atoms: _317  and  _318
REMARK  126  A    between atoms: _317  and  _320
REMARK  127  A    between atoms: _323  and  _325
REMARK  128  A    between atoms: _325  and  _326
REMARK  129  A    between atoms: _325  and  _328
REMARK  130  A    between atoms: _328  and  _329
REMARK  131  A    between atoms: _333  and  _334
REMARK  132  A    between atoms: _339  and  _341
REMARK  133  A    between atoms: _341  and  _342
REMARK  134  A    between atoms: _341  and  _344
REMARK  135  A    between atoms: _344  and  _345
REMARK  136  A    between atoms: _345  and  _346
REMARK  137  A    between atoms: _349  and  _351
REMARK  138  A    between atoms: _351  and  _352
REMARK  139  A    between atoms: _355  and  _357
REMARK  140  A    between atoms: _357  and  _358
REMARK  141  A    between atoms: _357  and  _360
REMARK  142  A    between atoms: _360  and  _361
REMARK  143  A    between atoms: _364  and  _366
REMARK  144  A    between atoms: _366  and  _367
REMARK  145  A    between atoms: _366  and  _369
REMARK  146  A    between atoms: _369  and  _370
REMARK  147  A    between atoms: _370  and  _371
REMARK  148  A    between atoms: _374  and  _376
REMARK  149  A    between atoms: _376  and  _377
REMARK  150  A    between atoms: _376  and  _379
REMARK  151  A    between atoms: _379  and  _380
REMARK  152  A    between atoms: _385  and  _387
REMARK  153  A    between atoms: _387  and  _388
REMARK  154  A    between atoms: _390  and  _392
REMARK  155  A    between atoms: _392  and  _393
REMARK  156  A    between atoms: _392  and  _395
REMARK  157  A    between atoms: _398  and  _400
REMARK  158  A    between atoms: _400  and  _401
REMARK  159  A    between atoms: _404  and  _406
REMARK  160  A    between atoms: _406  and  _407
REMARK  161  A    between atoms: _406  and  _409
REMARK  162  A    between atoms: _409  and  _410
REMARK  163  A    between atoms: _415  and  _417
REMARK  164  A    between atoms: _417  and  _418
REMARK  165  A    between atoms: _417  and  _420
REMARK  166  A    between atoms: _420  and  _421
REMARK  167  A    between atoms: _421  and  _422
REMARK  168  A    between atoms: _422  and  _423
REMARK  169  A    between atoms: _423  and  _424
REMARK  170  A    between atoms: _428  and  _430
REMARK  171  A    between atoms: _430  and  _431
REMARK  172  A    between atoms: _430  and  _433
REMARK  173  A    between atoms: _433  and  _434
REMARK  174  A    between atoms: _437  and  _439
REMARK  175  A    between atoms: _439  and  _440
REMARK  176  A    between atoms: _439  and  _442
REMARK  177  A    between atoms: _442  and  _443
REMARK  178  A    between atoms: _448  and  _450
REMARK  179  A    between atoms: _450  and  _451
REMARK  180  A    between atoms: _453  and  _455
REMARK  181  A    between atoms: _455  and  _456
REMARK  182  A    between atoms: _455  and  _458
REMARK  183  A    between atoms: _458  and  _459
REMARK  184  A    between atoms: _459  and  _460
REMARK  185  A    between atoms: _460  and  _461
REMARK  186  A    between atoms: _461  and  _462
REMARK  187  A    between atoms: _466  and  _468
REMARK  188  A    between atoms: _468  and  _469
REMARK  189  A    between atoms: _468  and  _471
REMARK  190  A    between atoms: _471  and  _472
REMARK  191  A    between atoms: _472  and  _473
REMARK  192  A    between atoms: _473  and  _474
REMARK  193  A    between atoms: _483  and  _485
REMARK  194  A    between atoms: _485  and  _486
REMARK  195  A    between atoms: _485  and  _488
REMARK  196  A    between atoms: _488  and  _489
REMARK  197  A    between atoms: _494  and  _496
REMARK  198  A    between atoms: _496  and  _497
REMARK  199  A    between atoms: _496  and  _499
REMARK  200  A    between atoms: _499  and  _500
REMARK  201  A    between atoms: _505  and  _506
REMARK  202  A    between atoms: _508  and  _510
REMARK  203  A    between atoms: _510  and  _511
REMARK  204  A    between atoms: _510  and  _513
REMARK  205  A    between atoms: _513  and  _514
REMARK  206  A    between atoms: _514  and  _515
REMARK  207  A    between atoms: _515  and  _516
REMARK  208  A    between atoms: _516  and  _517
REMARK  209  A    between atoms: _521  and  _523
REMARK  210  A    between atoms: _523  and  _524
REMARK  211  A    between atoms: _523  and  _526
REMARK  212  A    between atoms: _526  and  _527
REMARK  213  A    between atoms: _529  and  _531
REMARK  214  A    between atoms: _531  and  _532
REMARK  215  A    between atoms: _531  and  _534
REMARK  216  A    between atoms: _534  and  _535
REMARK  217  A    between atoms: _538  and  _540
REMARK  218  A    between atoms: _540  and  _541
REMARK  219  A    between atoms: _540  and  _543
REMARK  220  A    between atoms: _543  and  _544
REMARK  221  A    between atoms: _544  and  _545
REMARK  222  A    between atoms: _548  and  _550
REMARK  223  A    between atoms: _550  and  _551
REMARK  224  A    between atoms: _554  and  _556
REMARK  225  A    between atoms: _556  and  _557
REMARK  226  A    between atoms: _556  and  _559
REMARK  227  A    between atoms: _559  and  _560
REMARK  228  A    between atoms: _562  and  _564
REMARK  229  A    between atoms: _564  and  _565
REMARK  230  A    between atoms: _567  and  _569
REMARK  231  A    between atoms: _569  and  _570
REMARK  232  A    between atoms: _569  and  _572
REMARK  233  A    between atoms: _572  and  _573
REMARK  234  A    between atoms: _576  and  _578
REMARK  235  A    between atoms: _578  and  _579
REMARK  236  A    between atoms: _581  and  _583
REMARK  237  A    between atoms: _583  and  _584
REMARK  238  A    between atoms: _583  and  _586
REMARK  239  A    between atoms: _586  and  _587
REMARK  240  A    between atoms: _592  and  _594
REMARK  241  A    between atoms: _594  and  _595
REMARK  242  A    between atoms: _594  and  _597
REMARK  243  A    between atoms: _597  and  _598
REMARK  244  A    between atoms: _598  and  _599
REMARK  245  A    between atoms: _606  and  _607
REMARK  246  A    between atoms: _607  and  _623
REMARK  247  A    between atoms: _608  and  _610
REMARK  248  A    between atoms: _610  and  _611
REMARK  249  A    between atoms: _611  and  _612
REMARK  250  A    between atoms: _616  and  _618
REMARK  251  A    between atoms: _618  and  _619
REMARK  252  A    between atoms: _618  and  _626
REMARK  253  A    between atoms: _619  and  _620
REMARK  254  A    between atoms: _620  and  _621
REMARK  255  A    between atoms: _621  and  _622
REMARK  256  A    between atoms: _622  and  _623
REMARK  257  A    between atoms: _628  and  _630
REMARK  258  A    between atoms: _630  and  _631
REMARK  259  A    between atoms: _630  and  _633
REMARK  260  A    between atoms: _633  and  _634
REMARK  261  A    between atoms: _637  and  _639
REMARK  262  A    between atoms: _639  and  _640
REMARK  263  A    between atoms: _642  and  _644
REMARK  264  A    between atoms: _644  and  _645
REMARK  265  A    between atoms: _648  and  _650
REMARK  266  A    between atoms: _650  and  _651
REMARK  267  A    between atoms: _650  and  _653
REMARK  268  A    between atoms: _653  and  _654
REMARK  269  A    between atoms: _659  and  _660
REMARK                            x       y       z     vdW  Elec       q    Type
REMARK                         _______ _______ _______ _____ _____    ______ ____
ROOT
ATOM      1  O   HOH     1      36.277  22.121  17.521  0.00  0.00    +0.000 OA
ENDROOT
TORSDOF 0
REMARK  Name = ../refined-set-2016/2pyi/2pyi_pocket.pdb
REMARK  269 active torsions:
REMARK  status: ('A' for Active; 'I' for Inactive)
REMARK    1  A    between atoms: _1  and  _3
REMARK    2  A    between atoms: _3  and  _4
REMARK    3  A    between atoms: _3  and  _6
REMARK    4  A    between atoms: _6  and  _7
REMARK    5  A    between atoms: _12  and  _13
REMARK    6  A    between atoms: _15  and  _17
REMARK    7  A    between atoms: _17  and  _18
REMARK    8  A    between atoms: _17  and  _20
REMARK    9  A    between atoms: _20  and  _21
REMARK   10  A    between atoms: _21  and  _22
REMARK   11  A    between atoms: _25  and  _27
REMARK   12  A    between atoms: _27  and  _28
REMARK   13  A    between atoms: _27  and  _30
REMARK   14  A    between atoms: _30  and  _31
REMARK   15  A    between atoms: _36  and  _38
REMARK   16  A    between atoms: _38  and  _39
REMARK   17  A    between atoms: _41  and  _43
REMARK   18  A    between atoms: _43  and  _44
REMARK   19  A    between atoms: _46  and  _48
REMARK   20  A    between atoms: _48  and  _49
REMARK   21  A    between atoms: _48  and  _51
REMARK   22  A    between atoms: _51  and  _52
REMARK   23  A    between atoms: _55  and  _57
REMARK   24  A    between atoms: _57  and  _58
REMARK   25  A    between atoms: _60  and  _62
REMARK   26  A    between atoms: _62  and  _63
REMARK   27  A    between atoms: _62  and  _65
REMARK   28  A    between atoms: _65  and  _66
REMARK   29  A    between atoms: _66  and  _67
REMARK   30  A    between atoms: _67  and  _68
REMARK   31  A    between atoms: _77  and  _79
REMARK   32  A    between atoms: _79  and  _80
REMARK   33  A    between atoms: _79  and  _82
REMARK   34  A    between atoms: _82  and  _83
REMARK   35  A    between atoms: _86  and  _88
REMARK   36  A    between atoms: _88  and  _89
REMARK   37  A    between atoms: _92  and  _94
REMARK   38  A    between atoms: _94  and  _95
REMARK   39  A    between atoms: _94  and  _97
REMARK   40  A    between atoms: _97  and  _98
REMARK   41  A    between atoms: _104  and  _106
REMARK   42  A    between atoms: _106  and  _107
REMARK   43  A    between atoms: _106  and  _109
REMARK   44  A    between atoms: _109  and  _110
REMARK   45  A    between atoms: _115  and  _116
REMARK   46  A    between atoms: _119  and  _120
REMARK   47  A    between atoms: _125  and  _127
REMARK   48  A    between atoms: _127  and  _128
REMARK   49  A    between atoms: _127  and  _130
REMARK   50  A    between atoms: _130  and  _131
REMARK   51  A    between atoms: _136  and  _138
REMARK   52  A    between atoms: _138  and  _139
REMARK   53  A    between atoms: _138  and  _141
REMARK   54  A    between atoms: _141  and  _142
REMARK   55  A    between atoms: _145  and  _147
REMARK   56  A    between atoms: _147  and  _148
REMARK   57  A    between atoms: _147  and  _150
REMARK   58  A    between atoms: _150  and  _151
REMARK   59  A    between atoms: _156  and  _158
REMARK   60  A    between atoms: _158  and  _159
REMARK   61  A    between atoms: _158  and  _161
REMARK   62  A    between atoms: _161  and  _162
REMARK   63  A    between atoms: _168  and  _170
REMARK   64  A    between atoms: _170  and  _171
REMARK   65  A    between atoms: _170  and  _173
REMARK   66  A    between atoms: _173  and  _174
REMARK   67  A    between atoms: _180  and  _182
REMARK   68  A    between atoms: _182  and  _183
REMARK   69  A    between atoms: _182  and  _185
REMARK   70  A    between atoms: _185  and  _186
REMARK   71  A    between atoms: _186  and  _187
REMARK   72  A    between atoms: _190  and  _192
REMARK   73  A    between atoms: _192  and  _193
REMARK   74  A    between atoms: _195  and  _197
REMARK   75  A    between atoms: _197  and  _198
REMARK   76  A    between atoms: _197  and  _200
REMARK   77  A    between atoms: _200  and  _201
REMARK   78  A    between atoms: _201  and  _202
REMARK   79  A    between atoms: _202  and  _203
REMARK   80  A    between atoms: _203  and  _204
REMARK   81  A    between atoms: _208  and  _210
REMARK   82  A    between atoms: _210  and  _211
REMARK   83  A    between atoms: _210  and  _213
REMARK   84  A    between atoms: _213  and  _214
REMARK   85  A    between atoms: _214  and  _215
REMARK   86  A    between atoms: _215  and  _216
REMARK   87  A    between atoms: _225  and  _227
REMARK   88  A    between atoms: _227  and  _228
REMARK   89  A    between atoms: _227  and  _230
REMARK   90  A    between atoms: _230  and  _231
REMARK   91  A    between atoms: _231  and  _232
REMARK   92  A    between atoms: _235  and  _237
REMARK   93  A    between atoms: _237  and  _238
REMARK   94  A    between atoms: _237  and  _240
REMARK   95  A    between atoms: _240  and  _241
REMARK   96  A    between atoms: _246  and  _248
REMARK   97  A    between atoms: _248  and  _249
REMARK   98  A    between atoms: _248  and  _251
REMARK   99  A    between atoms: _251  and  _252
REMARK  100  A    between atoms: _255  and  _257
REMARK  101  A    between atoms: _257  and  _258
REMARK  102  A    between atoms: _257  and  _260
REMARK  103  A    between atoms: _260  and  _261
REMARK  104  A    between atoms: _264  and  _266
REMARK  105  A    between atoms: _266  and  _267
REMARK  106  A    between atoms: _266  and  _269
REMARK  107  A    between atoms: _269  and  _270
REMARK  108  A    between atoms: _275  and  _277
REMARK  109  A    between atoms: _277  and  _278
REMARK  110  A    between atoms: _277  and  _280
REMARK  111  A    between atoms: _280  and  _281
REMARK  112  A    between atoms: _284  and  _286
REMARK  113  A    between atoms: _286  and  _287
REMARK  114  A    between atoms: _286  and  _289
REMARK  115  A    between atoms: _289  and  _290
REMARK  116  A    between atoms: _295  and  _297
REMARK  117  A    between atoms: _297  and  _298
REMARK  118  A    between atoms: _297  and  _300
REMARK  119  A    between atoms: _300  and  _301
REMARK  120  A    between atoms: _306  and  _308
REMARK  121  A    between atoms: _308  and  _309
REMARK  122  A    between atoms: _308  and  _311
REMARK  123  A    between atoms: _311  and  _312
REMARK  124  A    between atoms: _315  and  _317
REMARK  125  A    between atoms: _317  and  _318
REMARK  126  A    between atoms: _317  and  _320
REMARK  127  A    between atoms: _323  and  _325
REMARK  128  A    between atoms: _325  and  _326
REMARK  129  A    between atoms: _325  and  _328
REMARK  130  A    between atoms: _328  and  _329
REMARK  131  A    between atoms: _333  and  _334
REMARK  132  A    between atoms: _339  and  _341
REMARK  133  A    between atoms: _341  and  _342
REMARK  134  A    between atoms: _341  and  _344
REMARK  135  A    between atoms: _344  and  _345
REMARK  136  A    between atoms: _345  and  _346
REMARK  137  A    between atoms: _349  and  _351
REMARK  138  A    between atoms: _351  and  _352
REMARK  139  A    between atoms: _355  and  _357
REMARK  140  A    between atoms: _357  and  _358
REMARK  141  A    between atoms: _357  and  _360
REMARK  142  A    between atoms: _360  and  _361
REMARK  143  A    between atoms: _364  and  _366
REMARK  144  A    between atoms: _366  and  _367
REMARK  145  A    between atoms: _366  and  _369
REMARK  146  A    between atoms: _369  and  _370
REMARK  147  A    between atoms: _370  and  _371
REMARK  148  A    between atoms: _374  and  _376
REMARK  149  A    between atoms: _376  and  _377
REMARK  150  A    between atoms: _376  and  _379
REMARK  151  A    between atoms: _379  and  _380
REMARK  152  A    between atoms: _385  and  _387
REMARK  153  A    between atoms: _387  and  _388
REMARK  154  A    between atoms: _390  and  _392
REMARK  155  A    between atoms: _392  and  _393
REMARK  156  A    between atoms: _392  and  _395
REMARK  157  A    between atoms: _398  and  _400
REMARK  158  A    between atoms: _400  and  _401
REMARK  159  A    between atoms: _404  and  _406
REMARK  160  A    between atoms: _406  and  _407
REMARK  161  A    between atoms: _406  and  _409
REMARK  162  A    between atoms: _409  and  _410
REMARK  163  A    between atoms: _415  and  _417
REMARK  164  A    between atoms: _417  and  _418
REMARK  165  A    between atoms: _417  and  _420
REMARK  166  A    between atoms: _420  and  _421
REMARK  167  A    between atoms: _421  and  _422
REMARK  168  A    between atoms: _422  and  _423
REMARK  169  A    between atoms: _423  and  _424
REMARK  170  A    between atoms: _428  and  _430
REMARK  171  A    between atoms: _430  and  _431
REMARK  172  A    between atoms: _430  and  _433
REMARK  173  A    between atoms: _433  and  _434
REMARK  174  A    between atoms: _437  and  _439
REMARK  175  A    between atoms: _439  and  _440
REMARK  176  A    between atoms: _439  and  _442
REMARK  177  A    between atoms: _442  and  _443
REMARK  178  A    between atoms: _448  and  _450
REMARK  179  A    between atoms: _450  and  _451
REMARK  180  A    between atoms: _453  and  _455
REMARK  181  A    between atoms: _455  and  _456
REMARK  182  A    between atoms: _455  and  _458
REMARK  183  A    between atoms: _458  and  _459
REMARK  184  A    between atoms: _459  and  _460
REMARK  185  A    between atoms: _460  and  _461
REMARK  186  A    between atoms: _461  and  _462
REMARK  187  A    between atoms: _466  and  _468
REMARK  188  A    between atoms: _468  and  _469
REMARK  189  A    between atoms: _468  and  _471
REMARK  190  A    between atoms: _471  and  _472
REMARK  191  A    between atoms: _472  and  _473
REMARK  192  A    between atoms: _473  and  _474
REMARK  193  A    between atoms: _483  and  _485
REMARK  194  A    between atoms: _485  and  _486
REMARK  195  A    between atoms: _485  and  _488
REMARK  196  A    between atoms: _488  and  _489
REMARK  197  A    between atoms: _494  and  _496
REMARK  198  A    between atoms: _496  and  _497
REMARK  199  A    between atoms: _496  and  _499
REMARK  200  A    between atoms: _499  and  _500
REMARK  201  A    between atoms: _505  and  _506
REMARK  202  A    between atoms: _508  and  _510
REMARK  203  A    between atoms: _510  and  _511
REMARK  204  A    between atoms: _510  and  _513
REMARK  205  A    between atoms: _513  and  _514
REMARK  206  A    between atoms: _514  and  _515
REMARK  207  A    between atoms: _515  and  _516
REMARK  208  A    between atoms: _516  and  _517
REMARK  209  A    between atoms: _521  and  _523
REMARK  210  A    between atoms: _523  and  _524
REMARK  211  A    between atoms: _523  and  _526
REMARK  212  A    between atoms: _526  and  _527
REMARK  213  A    between atoms: _529  and  _531
REMARK  214  A    between atoms: _531  and  _532
REMARK  215  A    between atoms: _531  and  _534
REMARK  216  A    between atoms: _534  and  _535
REMARK  217  A    between atoms: _538  and  _540
REMARK  218  A    between atoms: _540  and  _541
REMARK  219  A    between atoms: _540  and  _543
REMARK  220  A    between atoms: _543  and  _544
REMARK  221  A    between atoms: _544  and  _545
REMARK  222  A    between atoms: _548  and  _550
REMARK  223  A    between atoms: _550  and  _551
REMARK  224  A    between atoms: _554  and  _556
REMARK  225  A    between atoms: _556  and  _557
REMARK  226  A    between atoms: _556  and  _559
REMARK  227  A    between atoms: _559  and  _560
REMARK  228  A    between atoms: _562  and  _564
REMARK  229  A    between atoms: _564  and  _565
REMARK  230  A    between atoms: _567  and  _569
REMARK  231  A    between atoms: _569  and  _570
REMARK  232  A    between atoms: _569  and  _572
REMARK  233  A    between atoms: _572  and  _573
REMARK  234  A    between atoms: _576  and  _578
REMARK  235  A    between atoms: _578  and  _579
REMARK  236  A    between atoms: _581  and  _583
REMARK  237  A    between atoms: _583  and  _584
REMARK  238  A    between atoms: _583  and  _586
REMARK  239  A    between atoms: _586  and  _587
REMARK  240  A    between atoms: _592  and  _594
REMARK  241  A    between atoms: _594  and  _595
REMARK  242  A    between atoms: _594  and  _597
REMARK  243  A    between atoms: _597  and  _598
REMARK  244  A    between atoms: _598  and  _599
REMARK  245  A    between atoms: _606  and  _607
REMARK  246  A    between atoms: _607  and  _623
REMARK  247  A    between atoms: _608  and  _610
REMARK  248  A    between atoms: _610  and  _611
REMARK  249  A    between atoms: _611  and  _612
REMARK  250  A    between atoms: _616  and  _618
REMARK  251  A    between atoms: _618  and  _619
REMARK  252  A    between atoms: _618  and  _626
REMARK  253  A    between atoms: _619  and  _620
REMARK  254  A    between atoms: _620  and  _621
REMARK  255  A    between atoms: _621  and  _622
REMARK  256  A    between atoms: _622  and  _623
REMARK  257  A    between atoms: _628  and  _630
REMARK  258  A    between atoms: _630  and  _631
REMARK  259  A    between atoms: _630  and  _633
REMARK  260  A    between atoms: _633  and  _634
REMARK  261  A    between atoms: _637  and  _639
REMARK  262  A    between atoms: _639  and  _640
REMARK  263  A    between atoms: _642  and  _644
REMARK  264  A    between atoms: _644  and  _645
REMARK  265  A    between atoms: _648  and  _650
REMARK  266  A    between atoms: _650  and  _651
REMARK  267  A    between atoms: _650  and  _653
REMARK  268  A    between atoms: _653  and  _654
REMARK  269  A    between atoms: _659  and  _660
REMARK                            x       y       z     vdW  Elec       q    Type
REMARK                         _______ _______ _______ _____ _____    ______ ____
ROOT
ATOM      1  O   HOH     1      43.746  22.507  31.899  0.00  0.00    +0.000 OA
ENDROOT
TORSDOF 0
REMARK  Name = ../refined-set-2016/2pyi/2pyi_pocket.pdb
REMARK  269 active torsions:
REMARK  status: ('A' for Active; 'I' for Inactive)
REMARK    1  A    between atoms: _1  and  _3
REMARK    2  A    between atoms: _3  and  _4
REMARK    3  A    between atoms: _3  and  _6
REMARK    4  A    between atoms: _6  and  _7
REMARK    5  A    between atoms: _12  and  _13
REMARK    6  A    between atoms: _15  and  _17
REMARK    7  A    between atoms: _17  and  _18
REMARK    8  A    between atoms: _17  and  _20
REMARK    9  A    between atoms: _20  and  _21
REMARK   10  A    between atoms: _21  and  _22
REMARK   11  A    between atoms: _25  and  _27
REMARK   12  A    between atoms: _27  and  _28
REMARK   13  A    between atoms: _27  and  _30
REMARK   14  A    between atoms: _30  and  _31
REMARK   15  A    between atoms: _36  and  _38
REMARK   16  A    between atoms: _38  and  _39
REMARK   17  A    between atoms: _41  and  _43
REMARK   18  A    between atoms: _43  and  _44
REMARK   19  A    between atoms: _46  and  _48
REMARK   20  A    between atoms: _48  and  _49
REMARK   21  A    between atoms: _48  and  _51
REMARK   22  A    between atoms: _51  and  _52
REMARK   23  A    between atoms: _55  and  _57
REMARK   24  A    between atoms: _57  and  _58
REMARK   25  A    between atoms: _60  and  _62
REMARK   26  A    between atoms: _62  and  _63
REMARK   27  A    between atoms: _62  and  _65
REMARK   28  A    between atoms: _65  and  _66
REMARK   29  A    between atoms: _66  and  _67
REMARK   30  A    between atoms: _67  and  _68
REMARK   31  A    between atoms: _77  and  _79
REMARK   32  A    between atoms: _79  and  _80
REMARK   33  A    between atoms: _79  and  _82
REMARK   34  A    between atoms: _82  and  _83
REMARK   35  A    between atoms: _86  and  _88
REMARK   36  A    between atoms: _88  and  _89
REMARK   37  A    between atoms: _92  and  _94
REMARK   38  A    between atoms: _94  and  _95
REMARK   39  A    between atoms: _94  and  _97
REMARK   40  A    between atoms: _97  and  _98
REMARK   41  A    between atoms: _104  and  _106
REMARK   42  A    between atoms: _106  and  _107
REMARK   43  A    between atoms: _106  and  _109
REMARK   44  A    between atoms: _109  and  _110
REMARK   45  A    between atoms: _115  and  _116
REMARK   46  A    between atoms: _119  and  _120
REMARK   47  A    between atoms: _125  and  _127
REMARK   48  A    between atoms: _127  and  _128
REMARK   49  A    between atoms: _127  and  _130
REMARK   50  A    between atoms: _130  and  _131
REMARK   51  A    between atoms: _136  and  _138
REMARK   52  A    between atoms: _138  and  _139
REMARK   53  A    between atoms: _138  and  _141
REMARK   54  A    between atoms: _141  and  _142
REMARK   55  A    between atoms: _145  and  _147
REMARK   56  A    between atoms: _147  and  _148
REMARK   57  A    between atoms: _147  and  _150
REMARK   58  A    between atoms: _150  and  _151
REMARK   59  A    between atoms: _156  and  _158
REMARK   60  A    between atoms: _158  and  _159
REMARK   61  A    between atoms: _158  and  _161
REMARK   62  A    between atoms: _161  and  _162
REMARK   63  A    between atoms: _168  and  _170
REMARK   64  A    between atoms: _170  and  _171
REMARK   65  A    between atoms: _170  and  _173
REMARK   66  A    between atoms: _173  and  _174
REMARK   67  A    between atoms: _180  and  _182
REMARK   68  A    between atoms: _182  and  _183
REMARK   69  A    between atoms: _182  and  _185
REMARK   70  A    between atoms: _185  and  _186
REMARK   71  A    between atoms: _186  and  _187
REMARK   72  A    between atoms: _190  and  _192
REMARK   73  A    between atoms: _192  and  _193
REMARK   74  A    between atoms: _195  and  _197
REMARK   75  A    between atoms: _197  and  _198
REMARK   76  A    between atoms: _197  and  _200
REMARK   77  A    between atoms: _200  and  _201
REMARK   78  A    between atoms: _201  and  _202
REMARK   79  A    between atoms: _202  and  _203
REMARK   80  A    between atoms: _203  and  _204
REMARK   81  A    between atoms: _208  and  _210
REMARK   82  A    between atoms: _210  and  _211
REMARK   83  A    between atoms: _210  and  _213
REMARK   84  A    between atoms: _213  and  _214
REMARK   85  A    between atoms: _214  and  _215
REMARK   86  A    between atoms: _215  and  _216
REMARK   87  A    between atoms: _225  and  _227
REMARK   88  A    between atoms: _227  and  _228
REMARK   89  A    between atoms: _227  and  _230
REMARK   90  A    between atoms: _230  and  _231
REMARK   91  A    between atoms: _231  and  _232
REMARK   92  A    between atoms: _235  and  _237
REMARK   93  A    between atoms: _237  and  _238
REMARK   94  A    between atoms: _237  and  _240
REMARK   95  A    between atoms: _240  and  _241
REMARK   96  A    between atoms: _246  and  _248
REMARK   97  A    between atoms: _248  and  _249
REMARK   98  A    between atoms: _248  and  _251
REMARK   99  A    between atoms: _251  and  _252
REMARK  100  A    between atoms: _255  and  _257
REMARK  101  A    between atoms: _257  and  _258
REMARK  102  A    between atoms: _257  and  _260
REMARK  103  A    between atoms: _260  and  _261
REMARK  104  A    between atoms: _264  and  _266
REMARK  105  A    between atoms: _266  and  _267
REMARK  106  A    between atoms: _266  and  _269
REMARK  107  A    between atoms: _269  and  _270
REMARK  108  A    between atoms: _275  and  _277
REMARK  109  A    between atoms: _277  and  _278
REMARK  110  A    between atoms: _277  and  _280
REMARK  111  A    between atoms: _280  and  _281
REMARK  112  A    between atoms: _284  and  _286
REMARK  113  A    between atoms: _286  and  _287
REMARK  114  A    between atoms: _286  and  _289
REMARK  115  A    between atoms: _289  and  _290
REMARK  116  A    between atoms: _295  and  _297
REMARK  117  A    between atoms: _297  and  _298
REMARK  118  A    between atoms: _297  and  _300
REMARK  119  A    between atoms: _300  and  _301
REMARK  120  A    between atoms: _306  and  _308
REMARK  121  A    between atoms: _308  and  _309
REMARK  122  A    between atoms: _308  and  _311
REMARK  123  A    between atoms: _311  and  _312
REMARK  124  A    between atoms: _315  and  _317
REMARK  125  A    between atoms: _317  and  _318
REMARK  126  A    between atoms: _317  and  _320
REMARK  127  A    between atoms: _323  and  _325
REMARK  128  A    between atoms: _325  and  _326
REMARK  129  A    between atoms: _325  and  _328
REMARK  130  A    between atoms: _328  and  _329
REMARK  131  A    between atoms: _333  and  _334
REMARK  132  A    between atoms: _339  and  _341
REMARK  133  A    between atoms: _341  and  _342
REMARK  134  A    between atoms: _341  and  _344
REMARK  135  A    between atoms: _344  and  _345
REMARK  136  A    between atoms: _345  and  _346
REMARK  137  A    between atoms: _349  and  _351
REMARK  138  A    between atoms: _351  and  _352
REMARK  139  A    between atoms: _355  and  _357
REMARK  140  A    between atoms: _357  and  _358
REMARK  141  A    between atoms: _357  and  _360
REMARK  142  A    between atoms: _360  and  _361
REMARK  143  A    between atoms: _364  and  _366
REMARK  144  A    between atoms: _366  and  _367
REMARK  145  A    between atoms: _366  and  _369
REMARK  146  A    between atoms: _369  and  _370
REMARK  147  A    between atoms: _370  and  _371
REMARK  148  A    between atoms: _374  and  _376
REMARK  149  A    between atoms: _376  and  _377
REMARK  150  A    between atoms: _376  and  _379
REMARK  151  A    between atoms: _379  and  _380
REMARK  152  A    between atoms: _385  and  _387
REMARK  153  A    between atoms: _387  and  _388
REMARK  154  A    between atoms: _390  and  _392
REMARK  155  A    between atoms: _392  and  _393
REMARK  156  A    between atoms: _392  and  _395
REMARK  157  A    between atoms: _398  and  _400
REMARK  158  A    between atoms: _400  and  _401
REMARK  159  A    between atoms: _404  and  _406
REMARK  160  A    between atoms: _406  and  _407
REMARK  161  A    between atoms: _406  and  _409
REMARK  162  A    between atoms: _409  and  _410
REMARK  163  A    between atoms: _415  and  _417
REMARK  164  A    between atoms: _417  and  _418
REMARK  165  A    between atoms: _417  and  _420
REMARK  166  A    between atoms: _420  and  _421
REMARK  167  A    between atoms: _421  and  _422
REMARK  168  A    between atoms: _422  and  _423
REMARK  169  A    between atoms: _423  and  _424
REMARK  170  A    between atoms: _428  and  _430
REMARK  171  A    between atoms: _430  and  _431
REMARK  172  A    between atoms: _430  and  _433
REMARK  173  A    between atoms: _433  and  _434
REMARK  174  A    between atoms: _437  and  _439
REMARK  175  A    between atoms: _439  and  _440
REMARK  176  A    between atoms: _439  and  _442
REMARK  177  A    between atoms: _442  and  _443
REMARK  178  A    between atoms: _448  and  _450
REMARK  179  A    between atoms: _450  and  _451
REMARK  180  A    between atoms: _453  and  _455
REMARK  181  A    between atoms: _455  and  _456
REMARK  182  A    between atoms: _455  and  _458
REMARK  183  A    between atoms: _458  and  _459
REMARK  184  A    between atoms: _459  and  _460
REMARK  185  A    between atoms: _460  and  _461
REMARK  186  A    between atoms: _461  and  _462
REMARK  187  A    between atoms: _466  and  _468
REMARK  188  A    between atoms: _468  and  _469
REMARK  189  A    between atoms: _468  and  _471
REMARK  190  A    between atoms: _471  and  _472
REMARK  191  A    between atoms: _472  and  _473
REMARK  192  A    between atoms: _473  and  _474
REMARK  193  A    between atoms: _483  and  _485
REMARK  194  A    between atoms: _485  and  _486
REMARK  195  A    between atoms: _485  and  _488
REMARK  196  A    between atoms: _488  and  _489
REMARK  197  A    between atoms: _494  and  _496
REMARK  198  A    between atoms: _496  and  _497
REMARK  199  A    between atoms: _496  and  _499
REMARK  200  A    between atoms: _499  and  _500
REMARK  201  A    between atoms: _505  and  _506
REMARK  202  A    between atoms: _508  and  _510
REMARK  203  A    between atoms: _510  and  _511
REMARK  204  A    between atoms: _510  and  _513
REMARK  205  A    between atoms: _513  and  _514
REMARK  206  A    between atoms: _514  and  _515
REMARK  207  A    between atoms: _515  and  _516
REMARK  208  A    between atoms: _516  and  _517
REMARK  209  A    between atoms: _521  and  _523
REMARK  210  A    between atoms: _523  and  _524
REMARK  211  A    between atoms: _523  and  _526
REMARK  212  A    between atoms: _526  and  _527
REMARK  213  A    between atoms: _529  and  _531
REMARK  214  A    between atoms: _531  and  _532
REMARK  215  A    between atoms: _531  and  _534
REMARK  216  A    between atoms: _534  and  _535
REMARK  217  A    between atoms: _538  and  _540
REMARK  218  A    between atoms: _540  and  _541
REMARK  219  A    between atoms: _540  and  _543
REMARK  220  A    between atoms: _543  and  _544
REMARK  221  A    between atoms: _544  and  _545
REMARK  222  A    between atoms: _548  and  _550
REMARK  223  A    between atoms: _550  and  _551
REMARK  224  A    between atoms: _554  and  _556
REMARK  225  A    between atoms: _556  and  _557
REMARK  226  A    between atoms: _556  and  _559
REMARK  227  A    between atoms: _559  and  _560
REMARK  228  A    between atoms: _562  and  _564
REMARK  229  A    between atoms: _564  and  _565
REMARK  230  A    between atoms: _567  and  _569
REMARK  231  A    between atoms: _569  and  _570
REMARK  232  A    between atoms: _569  and  _572
REMARK  233  A    between atoms: _572  and  _573
REMARK  234  A    between atoms: _576  and  _578
REMARK  235  A    between atoms: _578  and  _579
REMARK  236  A    between atoms: _581  and  _583
REMARK  237  A    between atoms: _583  and  _584
REMARK  238  A    between atoms: _583  and  _586
REMARK  239  A    between atoms: _586  and  _587
REMARK  240  A    between atoms: _592  and  _594
REMARK  241  A    between atoms: _594  and  _595
REMARK  242  A    between atoms: _594  and  _597
REMARK  243  A    between atoms: _597  and  _598
REMARK  244  A    between atoms: _598  and  _599
REMARK  245  A    between atoms: _606  and  _607
REMARK  246  A    between atoms: _607  and  _623
REMARK  247  A    between atoms: _608  and  _610
REMARK  248  A    between atoms: _610  and  _611
REMARK  249  A    between atoms: _611  and  _612
REMARK  250  A    between atoms: _616  and  _618
REMARK  251  A    between atoms: _618  and  _619
REMARK  252  A    between atoms: _618  and  _626
REMARK  253  A    between atoms: _619  and  _620
REMARK  254  A    between atoms: _620  and  _621
REMARK  255  A    between atoms: _621  and  _622
REMARK  256  A    between atoms: _622  and  _623
REMARK  257  A    between atoms: _628  and  _630
REMARK  258  A    between atoms: _630  and  _631
REMARK  259  A    between atoms: _630  and  _633
REMARK  260  A    between atoms: _633  and  _634
REMARK  261  A    between atoms: _637  and  _639
REMARK  262  A    between atoms: _639  and  _640
REMARK  263  A    between atoms: _642  and  _644
REMARK  264  A    between atoms: _644  and  _645
REMARK  265  A    between atoms: _648  and  _650
REMARK  266  A    between atoms: _650  and  _651
REMARK  267  A    between atoms: _650  and  _653
REMARK  268  A    between atoms: _653  and  _654
REMARK  269  A    between atoms: _659  and  _660
REMARK                            x       y       z     vdW  Elec       q    Type
REMARK                         _______ _______ _______ _____ _____    ______ ____
ROOT
ATOM      1  O   HOH     1      25.671  16.344  28.235  0.00  0.00    +0.000 OA
ENDROOT
TORSDOF 0
REMARK  Name = ../refined-set-2016/2pyi/2pyi_pocket.pdb
REMARK  269 active torsions:
REMARK  status: ('A' for Active; 'I' for Inactive)
REMARK    1  A    between atoms: _1  and  _3
REMARK    2  A    between atoms: _3  and  _4
REMARK    3  A    between atoms: _3  and  _6
REMARK    4  A    between atoms: _6  and  _7
REMARK    5  A    between atoms: _12  and  _13
REMARK    6  A    between atoms: _15  and  _17
REMARK    7  A    between atoms: _17  and  _18
REMARK    8  A    between atoms: _17  and  _20
REMARK    9  A    between atoms: _20  and  _21
REMARK   10  A    between atoms: _21  and  _22
REMARK   11  A    between atoms: _25  and  _27
REMARK   12  A    between atoms: _27  and  _28
REMARK   13  A    between atoms: _27  and  _30
REMARK   14  A    between atoms: _30  and  _31
REMARK   15  A    between atoms: _36  and  _38
REMARK   16  A    between atoms: _38  and  _39
REMARK   17  A    between atoms: _41  and  _43
REMARK   18  A    between atoms: _43  and  _44
REMARK   19  A    between atoms: _46  and  _48
REMARK   20  A    between atoms: _48  and  _49
REMARK   21  A    between atoms: _48  and  _51
REMARK   22  A    between atoms: _51  and  _52
REMARK   23  A    between atoms: _55  and  _57
REMARK   24  A    between atoms: _57  and  _58
REMARK   25  A    between atoms: _60  and  _62
REMARK   26  A    between atoms: _62  and  _63
REMARK   27  A    between atoms: _62  and  _65
REMARK   28  A    between atoms: _65  and  _66
REMARK   29  A    between atoms: _66  and  _67
REMARK   30  A    between atoms: _67  and  _68
REMARK   31  A    between atoms: _77  and  _79
REMARK   32  A    between atoms: _79  and  _80
REMARK   33  A    between atoms: _79  and  _82
REMARK   34  A    between atoms: _82  and  _83
REMARK   35  A    between atoms: _86  and  _88
REMARK   36  A    between atoms: _88  and  _89
REMARK   37  A    between atoms: _92  and  _94
REMARK   38  A    between atoms: _94  and  _95
REMARK   39  A    between atoms: _94  and  _97
REMARK   40  A    between atoms: _97  and  _98
REMARK   41  A    between atoms: _104  and  _106
REMARK   42  A    between atoms: _106  and  _107
REMARK   43  A    between atoms: _106  and  _109
REMARK   44  A    between atoms: _109  and  _110
REMARK   45  A    between atoms: _115  and  _116
REMARK   46  A    between atoms: _119  and  _120
REMARK   47  A    between atoms: _125  and  _127
REMARK   48  A    between atoms: _127  and  _128
REMARK   49  A    between atoms: _127  and  _130
REMARK   50  A    between atoms: _130  and  _131
REMARK   51  A    between atoms: _136  and  _138
REMARK   52  A    between atoms: _138  and  _139
REMARK   53  A    between atoms: _138  and  _141
REMARK   54  A    between atoms: _141  and  _142
REMARK   55  A    between atoms: _145  and  _147
REMARK   56  A    between atoms: _147  and  _148
REMARK   57  A    between atoms: _147  and  _150
REMARK   58  A    between atoms: _150  and  _151
REMARK   59  A    between atoms: _156  and  _158
REMARK   60  A    between atoms: _158  and  _159
REMARK   61  A    between atoms: _158  and  _161
REMARK   62  A    between atoms: _161  and  _162
REMARK   63  A    between atoms: _168  and  _170
REMARK   64  A    between atoms: _170  and  _171
REMARK   65  A    between atoms: _170  and  _173
REMARK   66  A    between atoms: _173  and  _174
REMARK   67  A    between atoms: _180  and  _182
REMARK   68  A    between atoms: _182  and  _183
REMARK   69  A    between atoms: _182  and  _185
REMARK   70  A    between atoms: _185  and  _186
REMARK   71  A    between atoms: _186  and  _187
REMARK   72  A    between atoms: _190  and  _192
REMARK   73  A    between atoms: _192  and  _193
REMARK   74  A    between atoms: _195  and  _197
REMARK   75  A    between atoms: _197  and  _198
REMARK   76  A    between atoms: _197  and  _200
REMARK   77  A    between atoms: _200  and  _201
REMARK   78  A    between atoms: _201  and  _202
REMARK   79  A    between atoms: _202  and  _203
REMARK   80  A    between atoms: _203  and  _204
REMARK   81  A    between atoms: _208  and  _210
REMARK   82  A    between atoms: _210  and  _211
REMARK   83  A    between atoms: _210  and  _213
REMARK   84  A    between atoms: _213  and  _214
REMARK   85  A    between atoms: _214  and  _215
REMARK   86  A    between atoms: _215  and  _216
REMARK   87  A    between atoms: _225  and  _227
REMARK   88  A    between atoms: _227  and  _228
REMARK   89  A    between atoms: _227  and  _230
REMARK   90  A    between atoms: _230  and  _231
REMARK   91  A    between atoms: _231  and  _232
REMARK   92  A    between atoms: _235  and  _237
REMARK   93  A    between atoms: _237  and  _238
REMARK   94  A    between atoms: _237  and  _240
REMARK   95  A    between atoms: _240  and  _241
REMARK   96  A    between atoms: _246  and  _248
REMARK   97  A    between atoms: _248  and  _249
REMARK   98  A    between atoms: _248  and  _251
REMARK   99  A    between atoms: _251  and  _252
REMARK  100  A    between atoms: _255  and  _257
REMARK  101  A    between atoms: _257  and  _258
REMARK  102  A    between atoms: _257  and  _260
REMARK  103  A    between atoms: _260  and  _261
REMARK  104  A    between atoms: _264  and  _266
REMARK  105  A    between atoms: _266  and  _267
REMARK  106  A    between atoms: _266  and  _269
REMARK  107  A    between atoms: _269  and  _270
REMARK  108  A    between atoms: _275  and  _277
REMARK  109  A    between atoms: _277  and  _278
REMARK  110  A    between atoms: _277  and  _280
REMARK  111  A    between atoms: _280  and  _281
REMARK  112  A    between atoms: _284  and  _286
REMARK  113  A    between atoms: _286  and  _287
REMARK  114  A    between atoms: _286  and  _289
REMARK  115  A    between atoms: _289  and  _290
REMARK  116  A    between atoms: _295  and  _297
REMARK  117  A    between atoms: _297  and  _298
REMARK  118  A    between atoms: _297  and  _300
REMARK  119  A    between atoms: _300  and  _301
REMARK  120  A    between atoms: _306  and  _308
REMARK  121  A    between atoms: _308  and  _309
REMARK  122  A    between atoms: _308  and  _311
REMARK  123  A    between atoms: _311  and  _312
REMARK  124  A    between atoms: _315  and  _317
REMARK  125  A    between atoms: _317  and  _318
REMARK  126  A    between atoms: _317  and  _320
REMARK  127  A    between atoms: _323  and  _325
REMARK  128  A    between atoms: _325  and  _326
REMARK  129  A    between atoms: _325  and  _328
REMARK  130  A    between atoms: _328  and  _329
REMARK  131  A    between atoms: _333  and  _334
REMARK  132  A    between atoms: _339  and  _341
REMARK  133  A    between atoms: _341  and  _342
REMARK  134  A    between atoms: _341  and  _344
REMARK  135  A    between atoms: _344  and  _345
REMARK  136  A    between atoms: _345  and  _346
REMARK  137  A    between atoms: _349  and  _351
REMARK  138  A    between atoms: _351  and  _352
REMARK  139  A    between atoms: _355  and  _357
REMARK  140  A    between atoms: _357  and  _358
REMARK  141  A    between atoms: _357  and  _360
REMARK  142  A    between atoms: _360  and  _361
REMARK  143  A    between atoms: _364  and  _366
REMARK  144  A    between atoms: _366  and  _367
REMARK  145  A    between atoms: _366  and  _369
REMARK  146  A    between atoms: _369  and  _370
REMARK  147  A    between atoms: _370  and  _371
REMARK  148  A    between atoms: _374  and  _376
REMARK  149  A    between atoms: _376  and  _377
REMARK  150  A    between atoms: _376  and  _379
REMARK  151  A    between atoms: _379  and  _380
REMARK  152  A    between atoms: _385  and  _387
REMARK  153  A    between atoms: _387  and  _388
REMARK  154  A    between atoms: _390  and  _392
REMARK  155  A    between atoms: _392  and  _393
REMARK  156  A    between atoms: _392  and  _395
REMARK  157  A    between atoms: _398  and  _400
REMARK  158  A    between atoms: _400  and  _401
REMARK  159  A    between atoms: _404  and  _406
REMARK  160  A    between atoms: _406  and  _407
REMARK  161  A    between atoms: _406  and  _409
REMARK  162  A    between atoms: _409  and  _410
REMARK  163  A    between atoms: _415  and  _417
REMARK  164  A    between atoms: _417  and  _418
REMARK  165  A    between atoms: _417  and  _420
REMARK  166  A    between atoms: _420  and  _421
REMARK  167  A    between atoms: _421  and  _422
REMARK  168  A    between atoms: _422  and  _423
REMARK  169  A    between atoms: _423  and  _424
REMARK  170  A    between atoms: _428  and  _430
REMARK  171  A    between atoms: _430  and  _431
REMARK  172  A    between atoms: _430  and  _433
REMARK  173  A    between atoms: _433  and  _434
REMARK  174  A    between atoms: _437  and  _439
REMARK  175  A    between atoms: _439  and  _440
REMARK  176  A    between atoms: _439  and  _442
REMARK  177  A    between atoms: _442  and  _443
REMARK  178  A    between atoms: _448  and  _450
REMARK  179  A    between atoms: _450  and  _451
REMARK  180  A    between atoms: _453  and  _455
REMARK  181  A    between atoms: _455  and  _456
REMARK  182  A    between atoms: _455  and  _458
REMARK  183  A    between atoms: _458  and  _459
REMARK  184  A    between atoms: _459  and  _460
REMARK  185  A    between atoms: _460  and  _461
REMARK  186  A    between atoms: _461  and  _462
REMARK  187  A    between atoms: _466  and  _468
REMARK  188  A    between atoms: _468  and  _469
REMARK  189  A    between atoms: _468  and  _471
REMARK  190  A    between atoms: _471  and  _472
REMARK  191  A    between atoms: _472  and  _473
REMARK  192  A    between atoms: _473  and  _474
REMARK  193  A    between atoms: _483  and  _485
REMARK  194  A    between atoms: _485  and  _486
REMARK  195  A    between atoms: _485  and  _488
REMARK  196  A    between atoms: _488  and  _489
REMARK  197  A    between atoms: _494  and  _496
REMARK  198  A    between atoms: _496  and  _497
REMARK  199  A    between atoms: _496  and  _499
REMARK  200  A    between atoms: _499  and  _500
REMARK  201  A    between atoms: _505  and  _506
REMARK  202  A    between atoms: _508  and  _510
REMARK  203  A    between atoms: _510  and  _511
REMARK  204  A    between atoms: _510  and  _513
REMARK  205  A    between atoms: _513  and  _514
REMARK  206  A    between atoms: _514  and  _515
REMARK  207  A    between atoms: _515  and  _516
REMARK  208  A    between atoms: _516  and  _517
REMARK  209  A    between atoms: _521  and  _523
REMARK  210  A    between atoms: _523  and  _524
REMARK  211  A    between atoms: _523  and  _526
REMARK  212  A    between atoms: _526  and  _527
REMARK  213  A    between atoms: _529  and  _531
REMARK  214  A    between atoms: _531  and  _532
REMARK  215  A    between atoms: _531  and  _534
REMARK  216  A    between atoms: _534  and  _535
REMARK  217  A    between atoms: _538  and  _540
REMARK  218  A    between atoms: _540  and  _541
REMARK  219  A    between atoms: _540  and  _543
REMARK  220  A    between atoms: _543  and  _544
REMARK  221  A    between atoms: _544  and  _545
REMARK  222  A    between atoms: _548  and  _550
REMARK  223  A    between atoms: _550  and  _551
REMARK  224  A    between atoms: _554  and  _556
REMARK  225  A    between atoms: _556  and  _557
REMARK  226  A    between atoms: _556  and  _559
REMARK  227  A    between atoms: _559  and  _560
REMARK  228  A    between atoms: _562  and  _564
REMARK  229  A    between atoms: _564  and  _565
REMARK  230  A    between atoms: _567  and  _569
REMARK  231  A    between atoms: _569  and  _570
REMARK  232  A    between atoms: _569  and  _572
REMARK  233  A    between atoms: _572  and  _573
REMARK  234  A    between atoms: _576  and  _578
REMARK  235  A    between atoms: _578  and  _579
REMARK  236  A    between atoms: _581  and  _583
REMARK  237  A    between atoms: _583  and  _584
REMARK  238  A    between atoms: _583  and  _586
REMARK  239  A    between atoms: _586  and  _587
REMARK  240  A    between atoms: _592  and  _594
REMARK  241  A    between atoms: _594  and  _595
REMARK  242  A    between atoms: _594  and  _597
REMARK  243  A    between atoms: _597  and  _598
REMARK  244  A    between atoms: _598  and  _599
REMARK  245  A    between atoms: _606  and  _607
REMARK  246  A    between atoms: _607  and  _623
REMARK  247  A    between atoms: _608  and  _610
REMARK  248  A    between atoms: _610  and  _611
REMARK  249  A    between atoms: _611  and  _612
REMARK  250  A    between atoms: _616  and  _618
REMARK  251  A    between atoms: _618  and  _619
REMARK  252  A    between atoms: _618  and  _626
REMARK  253  A    between atoms: _619  and  _620
REMARK  254  A    between atoms: _620  and  _621
REMARK  255  A    between atoms: _621  and  _622
REMARK  256  A    between atoms: _622  and  _623
REMARK  257  A    between atoms: _628  and  _630
REMARK  258  A    between atoms: _630  and  _631
REMARK  259  A    between atoms: _630  and  _633
REMARK  260  A    between atoms: _633  and  _634
REMARK  261  A    between atoms: _637  and  _639
REMARK  262  A    between atoms: _639  and  _640
REMARK  263  A    between atoms: _642  and  _644
REMARK  264  A    between atoms: _644  and  _645
REMARK  265  A    between atoms: _648  and  _650
REMARK  266  A    between atoms: _650  and  _651
REMARK  267  A    between atoms: _650  and  _653
REMARK  268  A    between atoms: _653  and  _654
REMARK  269  A    between atoms: _659  and  _660
REMARK                            x       y       z     vdW  Elec       q    Type
REMARK                         _______ _______ _______ _____ _____    ______ ____
ROOT
ATOM      1  O   HOH     1      41.781  20.012  29.644  0.00  0.00    +0.000 OA
ENDROOT
TORSDOF 0
REMARK  Name = ../refined-set-2016/2pyi/2pyi_pocket.pdb
REMARK  269 active torsions:
REMARK  status: ('A' for Active; 'I' for Inactive)
REMARK    1  A    between atoms: _1  and  _3
REMARK    2  A    between atoms: _3  and  _4
REMARK    3  A    between atoms: _3  and  _6
REMARK    4  A    between atoms: _6  and  _7
REMARK    5  A    between atoms: _12  and  _13
REMARK    6  A    between atoms: _15  and  _17
REMARK    7  A    between atoms: _17  and  _18
REMARK    8  A    between atoms: _17  and  _20
REMARK    9  A    between atoms: _20  and  _21
REMARK   10  A    between atoms: _21  and  _22
REMARK   11  A    between atoms: _25  and  _27
REMARK   12  A    between atoms: _27  and  _28
REMARK   13  A    between atoms: _27  and  _30
REMARK   14  A    between atoms: _30  and  _31
REMARK   15  A    between atoms: _36  and  _38
REMARK   16  A    between atoms: _38  and  _39
REMARK   17  A    between atoms: _41  and  _43
REMARK   18  A    between atoms: _43  and  _44
REMARK   19  A    between atoms: _46  and  _48
REMARK   20  A    between atoms: _48  and  _49
REMARK   21  A    between atoms: _48  and  _51
REMARK   22  A    between atoms: _51  and  _52
REMARK   23  A    between atoms: _55  and  _57
REMARK   24  A    between atoms: _57  and  _58
REMARK   25  A    between atoms: _60  and  _62
REMARK   26  A    between atoms: _62  and  _63
REMARK   27  A    between atoms: _62  and  _65
REMARK   28  A    between atoms: _65  and  _66
REMARK   29  A    between atoms: _66  and  _67
REMARK   30  A    between atoms: _67  and  _68
REMARK   31  A    between atoms: _77  and  _79
REMARK   32  A    between atoms: _79  and  _80
REMARK   33  A    between atoms: _79  and  _82
REMARK   34  A    between atoms: _82  and  _83
REMARK   35  A    between atoms: _86  and  _88
REMARK   36  A    between atoms: _88  and  _89
REMARK   37  A    between atoms: _92  and  _94
REMARK   38  A    between atoms: _94  and  _95
REMARK   39  A    between atoms: _94  and  _97
REMARK   40  A    between atoms: _97  and  _98
REMARK   41  A    between atoms: _104  and  _106
REMARK   42  A    between atoms: _106  and  _107
REMARK   43  A    between atoms: _106  and  _109
REMARK   44  A    between atoms: _109  and  _110
REMARK   45  A    between atoms: _115  and  _116
REMARK   46  A    between atoms: _119  and  _120
REMARK   47  A    between atoms: _125  and  _127
REMARK   48  A    between atoms: _127  and  _128
REMARK   49  A    between atoms: _127  and  _130
REMARK   50  A    between atoms: _130  and  _131
REMARK   51  A    between atoms: _136  and  _138
REMARK   52  A    between atoms: _138  and  _139
REMARK   53  A    between atoms: _138  and  _141
REMARK   54  A    between atoms: _141  and  _142
REMARK   55  A    between atoms: _145  and  _147
REMARK   56  A    between atoms: _147  and  _148
REMARK   57  A    between atoms: _147  and  _150
REMARK   58  A    between atoms: _150  and  _151
REMARK   59  A    between atoms: _156  and  _158
REMARK   60  A    between atoms: _158  and  _159
REMARK   61  A    between atoms: _158  and  _161
REMARK   62  A    between atoms: _161  and  _162
REMARK   63  A    between atoms: _168  and  _170
REMARK   64  A    between atoms: _170  and  _171
REMARK   65  A    between atoms: _170  and  _173
REMARK   66  A    between atoms: _173  and  _174
REMARK   67  A    between atoms: _180  and  _182
REMARK   68  A    between atoms: _182  and  _183
REMARK   69  A    between atoms: _182  and  _185
REMARK   70  A    between atoms: _185  and  _186
REMARK   71  A    between atoms: _186  and  _187
REMARK   72  A    between atoms: _190  and  _192
REMARK   73  A    between atoms: _192  and  _193
REMARK   74  A    between atoms: _195  and  _197
REMARK   75  A    between atoms: _197  and  _198
REMARK   76  A    between atoms: _197  and  _200
REMARK   77  A    between atoms: _200  and  _201
REMARK   78  A    between atoms: _201  and  _202
REMARK   79  A    between atoms: _202  and  _203
REMARK   80  A    between atoms: _203  and  _204
REMARK   81  A    between atoms: _208  and  _210
REMARK   82  A    between atoms: _210  and  _211
REMARK   83  A    between atoms: _210  and  _213
REMARK   84  A    between atoms: _213  and  _214
REMARK   85  A    between atoms: _214  and  _215
REMARK   86  A    between atoms: _215  and  _216
REMARK   87  A    between atoms: _225  and  _227
REMARK   88  A    between atoms: _227  and  _228
REMARK   89  A    between atoms: _227  and  _230
REMARK   90  A    between atoms: _230  and  _231
REMARK   91  A    between atoms: _231  and  _232
REMARK   92  A    between atoms: _235  and  _237
REMARK   93  A    between atoms: _237  and  _238
REMARK   94  A    between atoms: _237  and  _240
REMARK   95  A    between atoms: _240  and  _241
REMARK   96  A    between atoms: _246  and  _248
REMARK   97  A    between atoms: _248  and  _249
REMARK   98  A    between atoms: _248  and  _251
REMARK   99  A    between atoms: _251  and  _252
REMARK  100  A    between atoms: _255  and  _257
REMARK  101  A    between atoms: _257  and  _258
REMARK  102  A    between atoms: _257  and  _260
REMARK  103  A    between atoms: _260  and  _261
REMARK  104  A    between atoms: _264  and  _266
REMARK  105  A    between atoms: _266  and  _267
REMARK  106  A    between atoms: _266  and  _269
REMARK  107  A    between atoms: _269  and  _270
REMARK  108  A    between atoms: _275  and  _277
REMARK  109  A    between atoms: _277  and  _278
REMARK  110  A    between atoms: _277  and  _280
REMARK  111  A    between atoms: _280  and  _281
REMARK  112  A    between atoms: _284  and  _286
REMARK  113  A    between atoms: _286  and  _287
REMARK  114  A    between atoms: _286  and  _289
REMARK  115  A    between atoms: _289  and  _290
REMARK  116  A    between atoms: _295  and  _297
REMARK  117  A    between atoms: _297  and  _298
REMARK  118  A    between atoms: _297  and  _300
REMARK  119  A    between atoms: _300  and  _301
REMARK  120  A    between atoms: _306  and  _308
REMARK  121  A    between atoms: _308  and  _309
REMARK  122  A    between atoms: _308  and  _311
REMARK  123  A    between atoms: _311  and  _312
REMARK  124  A    between atoms: _315  and  _317
REMARK  125  A    between atoms: _317  and  _318
REMARK  126  A    between atoms: _317  and  _320
REMARK  127  A    between atoms: _323  and  _325
REMARK  128  A    between atoms: _325  and  _326
REMARK  129  A    between atoms: _325  and  _328
REMARK  130  A    between atoms: _328  and  _329
REMARK  131  A    between atoms: _333  and  _334
REMARK  132  A    between atoms: _339  and  _341
REMARK  133  A    between atoms: _341  and  _342
REMARK  134  A    between atoms: _341  and  _344
REMARK  135  A    between atoms: _344  and  _345
REMARK  136  A    between atoms: _345  and  _346
REMARK  137  A    between atoms: _349  and  _351
REMARK  138  A    between atoms: _351  and  _352
REMARK  139  A    between atoms: _355  and  _357
REMARK  140  A    between atoms: _357  and  _358
REMARK  141  A    between atoms: _357  and  _360
REMARK  142  A    between atoms: _360  and  _361
REMARK  143  A    between atoms: _364  and  _366
REMARK  144  A    between atoms: _366  and  _367
REMARK  145  A    between atoms: _366  and  _369
REMARK  146  A    between atoms: _369  and  _370
REMARK  147  A    between atoms: _370  and  _371
REMARK  148  A    between atoms: _374  and  _376
REMARK  149  A    between atoms: _376  and  _377
REMARK  150  A    between atoms: _376  and  _379
REMARK  151  A    between atoms: _379  and  _380
REMARK  152  A    between atoms: _385  and  _387
REMARK  153  A    between atoms: _387  and  _388
REMARK  154  A    between atoms: _390  and  _392
REMARK  155  A    between atoms: _392  and  _393
REMARK  156  A    between atoms: _392  and  _395
REMARK  157  A    between atoms: _398  and  _400
REMARK  158  A    between atoms: _400  and  _401
REMARK  159  A    between atoms: _404  and  _406
REMARK  160  A    between atoms: _406  and  _407
REMARK  161  A    between atoms: _406  and  _409
REMARK  162  A    between atoms: _409  and  _410
REMARK  163  A    between atoms: _415  and  _417
REMARK  164  A    between atoms: _417  and  _418
REMARK  165  A    between atoms: _417  and  _420
REMARK  166  A    between atoms: _420  and  _421
REMARK  167  A    between atoms: _421  and  _422
REMARK  168  A    between atoms: _422  and  _423
REMARK  169  A    between atoms: _423  and  _424
REMARK  170  A    between atoms: _428  and  _430
REMARK  171  A    between atoms: _430  and  _431
REMARK  172  A    between atoms: _430  and  _433
REMARK  173  A    between atoms: _433  and  _434
REMARK  174  A    between atoms: _437  and  _439
REMARK  175  A    between atoms: _439  and  _440
REMARK  176  A    between atoms: _439  and  _442
REMARK  177  A    between atoms: _442  and  _443
REMARK  178  A    between atoms: _448  and  _450
REMARK  179  A    between atoms: _450  and  _451
REMARK  180  A    between atoms: _453  and  _455
REMARK  181  A    between atoms: _455  and  _456
REMARK  182  A    between atoms: _455  and  _458
REMARK  183  A    between atoms: _458  and  _459
REMARK  184  A    between atoms: _459  and  _460
REMARK  185  A    between atoms: _460  and  _461
REMARK  186  A    between atoms: _461  and  _462
REMARK  187  A    between atoms: _466  and  _468
REMARK  188  A    between atoms: _468  and  _469
REMARK  189  A    between atoms: _468  and  _471
REMARK  190  A    between atoms: _471  and  _472
REMARK  191  A    between atoms: _472  and  _473
REMARK  192  A    between atoms: _473  and  _474
REMARK  193  A    between atoms: _483  and  _485
REMARK  194  A    between atoms: _485  and  _486
REMARK  195  A    between atoms: _485  and  _488
REMARK  196  A    between atoms: _488  and  _489
REMARK  197  A    between atoms: _494  and  _496
REMARK  198  A    between atoms: _496  and  _497
REMARK  199  A    between atoms: _496  and  _499
REMARK  200  A    between atoms: _499  and  _500
REMARK  201  A    between atoms: _505  and  _506
REMARK  202  A    between atoms: _508  and  _510
REMARK  203  A    between atoms: _510  and  _511
REMARK  204  A    between atoms: _510  and  _513
REMARK  205  A    between atoms: _513  and  _514
REMARK  206  A    between atoms: _514  and  _515
REMARK  207  A    between atoms: _515  and  _516
REMARK  208  A    between atoms: _516  and  _517
REMARK  209  A    between atoms: _521  and  _523
REMARK  210  A    between atoms: _523  and  _524
REMARK  211  A    between atoms: _523  and  _526
REMARK  212  A    between atoms: _526  and  _527
REMARK  213  A    between atoms: _529  and  _531
REMARK  214  A    between atoms: _531  and  _532
REMARK  215  A    between atoms: _531  and  _534
REMARK  216  A    between atoms: _534  and  _535
REMARK  217  A    between atoms: _538  and  _540
REMARK  218  A    between atoms: _540  and  _541
REMARK  219  A    between atoms: _540  and  _543
REMARK  220  A    between atoms: _543  and  _544
REMARK  221  A    between atoms: _544  and  _545
REMARK  222  A    between atoms: _548  and  _550
REMARK  223  A    between atoms: _550  and  _551
REMARK  224  A    between atoms: _554  and  _556
REMARK  225  A    between atoms: _556  and  _557
REMARK  226  A    between atoms: _556  and  _559
REMARK  227  A    between atoms: _559  and  _560
REMARK  228  A    between atoms: _562  and  _564
REMARK  229  A    between atoms: _564  and  _565
REMARK  230  A    between atoms: _567  and  _569
REMARK  231  A    between atoms: _569  and  _570
REMARK  232  A    between atoms: _569  and  _572
REMARK  233  A    between atoms: _572  and  _573
REMARK  234  A    between atoms: _576  and  _578
REMARK  235  A    between atoms: _578  and  _579
REMARK  236  A    between atoms: _581  and  _583
REMARK  237  A    between atoms: _583  and  _584
REMARK  238  A    between atoms: _583  and  _586
REMARK  239  A    between atoms: _586  and  _587
REMARK  240  A    between atoms: _592  and  _594
REMARK  241  A    between atoms: _594  and  _595
REMARK  242  A    between atoms: _594  and  _597
REMARK  243  A    between atoms: _597  and  _598
REMARK  244  A    between atoms: _598  and  _599
REMARK  245  A    between atoms: _606  and  _607
REMARK  246  A    between atoms: _607  and  _623
REMARK  247  A    between atoms: _608  and  _610
REMARK  248  A    between atoms: _610  and  _611
REMARK  249  A    between atoms: _611  and  _612
REMARK  250  A    between atoms: _616  and  _618
REMARK  251  A    between atoms: _618  and  _619
REMARK  252  A    between atoms: _618  and  _626
REMARK  253  A    between atoms: _619  and  _620
REMARK  254  A    between atoms: _620  and  _621
REMARK  255  A    between atoms: _621  and  _622
REMARK  256  A    between atoms: _622  and  _623
REMARK  257  A    between atoms: _628  and  _630
REMARK  258  A    between atoms: _630  and  _631
REMARK  259  A    between atoms: _630  and  _633
REMARK  260  A    between atoms: _633  and  _634
REMARK  261  A    between atoms: _637  and  _639
REMARK  262  A    between atoms: _639  and  _640
REMARK  263  A    between atoms: _642  and  _644
REMARK  264  A    between atoms: _644  and  _645
REMARK  265  A    between atoms: _648  and  _650
REMARK  266  A    between atoms: _650  and  _651
REMARK  267  A    between atoms: _650  and  _653
REMARK  268  A    between atoms: _653  and  _654
REMARK  269  A    between atoms: _659  and  _660
REMARK                            x       y       z     vdW  Elec       q    Type
REMARK                         _______ _______ _______ _____ _____    ______ ____
ROOT
ATOM      1  O   HOH     1      35.786  24.687  23.563  0.00  0.00    +0.000 OA
ENDROOT
TORSDOF 0
REMARK  Name = ../refined-set-2016/2pyi/2pyi_pocket.pdb
REMARK  269 active torsions:
REMARK  status: ('A' for Active; 'I' for Inactive)
REMARK    1  A    between atoms: _1  and  _3
REMARK    2  A    between atoms: _3  and  _4
REMARK    3  A    between atoms: _3  and  _6
REMARK    4  A    between atoms: _6  and  _7
REMARK    5  A    between atoms: _12  and  _13
REMARK    6  A    between atoms: _15  and  _17
REMARK    7  A    between atoms: _17  and  _18
REMARK    8  A    between atoms: _17  and  _20
REMARK    9  A    between atoms: _20  and  _21
REMARK   10  A    between atoms: _21  and  _22
REMARK   11  A    between atoms: _25  and  _27
REMARK   12  A    between atoms: _27  and  _28
REMARK   13  A    between atoms: _27  and  _30
REMARK   14  A    between atoms: _30  and  _31
REMARK   15  A    between atoms: _36  and  _38
REMARK   16  A    between atoms: _38  and  _39
REMARK   17  A    between atoms: _41  and  _43
REMARK   18  A    between atoms: _43  and  _44
REMARK   19  A    between atoms: _46  and  _48
REMARK   20  A    between atoms: _48  and  _49
REMARK   21  A    between atoms: _48  and  _51
REMARK   22  A    between atoms: _51  and  _52
REMARK   23  A    between atoms: _55  and  _57
REMARK   24  A    between atoms: _57  and  _58
REMARK   25  A    between atoms: _60  and  _62
REMARK   26  A    between atoms: _62  and  _63
REMARK   27  A    between atoms: _62  and  _65
REMARK   28  A    between atoms: _65  and  _66
REMARK   29  A    between atoms: _66  and  _67
REMARK   30  A    between atoms: _67  and  _68
REMARK   31  A    between atoms: _77  and  _79
REMARK   32  A    between atoms: _79  and  _80
REMARK   33  A    between atoms: _79  and  _82
REMARK   34  A    between atoms: _82  and  _83
REMARK   35  A    between atoms: _86  and  _88
REMARK   36  A    between atoms: _88  and  _89
REMARK   37  A    between atoms: _92  and  _94
REMARK   38  A    between atoms: _94  and  _95
REMARK   39  A    between atoms: _94  and  _97
REMARK   40  A    between atoms: _97  and  _98
REMARK   41  A    between atoms: _104  and  _106
REMARK   42  A    between atoms: _106  and  _107
REMARK   43  A    between atoms: _106  and  _109
REMARK   44  A    between atoms: _109  and  _110
REMARK   45  A    between atoms: _115  and  _116
REMARK   46  A    between atoms: _119  and  _120
REMARK   47  A    between atoms: _125  and  _127
REMARK   48  A    between atoms: _127  and  _128
REMARK   49  A    between atoms: _127  and  _130
REMARK   50  A    between atoms: _130  and  _131
REMARK   51  A    between atoms: _136  and  _138
REMARK   52  A    between atoms: _138  and  _139
REMARK   53  A    between atoms: _138  and  _141
REMARK   54  A    between atoms: _141  and  _142
REMARK   55  A    between atoms: _145  and  _147
REMARK   56  A    between atoms: _147  and  _148
REMARK   57  A    between atoms: _147  and  _150
REMARK   58  A    between atoms: _150  and  _151
REMARK   59  A    between atoms: _156  and  _158
REMARK   60  A    between atoms: _158  and  _159
REMARK   61  A    between atoms: _158  and  _161
REMARK   62  A    between atoms: _161  and  _162
REMARK   63  A    between atoms: _168  and  _170
REMARK   64  A    between atoms: _170  and  _171
REMARK   65  A    between atoms: _170  and  _173
REMARK   66  A    between atoms: _173  and  _174
REMARK   67  A    between atoms: _180  and  _182
REMARK   68  A    between atoms: _182  and  _183
REMARK   69  A    between atoms: _182  and  _185
REMARK   70  A    between atoms: _185  and  _186
REMARK   71  A    between atoms: _186  and  _187
REMARK   72  A    between atoms: _190  and  _192
REMARK   73  A    between atoms: _192  and  _193
REMARK   74  A    between atoms: _195  and  _197
REMARK   75  A    between atoms: _197  and  _198
REMARK   76  A    between atoms: _197  and  _200
REMARK   77  A    between atoms: _200  and  _201
REMARK   78  A    between atoms: _201  and  _202
REMARK   79  A    between atoms: _202  and  _203
REMARK   80  A    between atoms: _203  and  _204
REMARK   81  A    between atoms: _208  and  _210
REMARK   82  A    between atoms: _210  and  _211
REMARK   83  A    between atoms: _210  and  _213
REMARK   84  A    between atoms: _213  and  _214
REMARK   85  A    between atoms: _214  and  _215
REMARK   86  A    between atoms: _215  and  _216
REMARK   87  A    between atoms: _225  and  _227
REMARK   88  A    between atoms: _227  and  _228
REMARK   89  A    between atoms: _227  and  _230
REMARK   90  A    between atoms: _230  and  _231
REMARK   91  A    between atoms: _231  and  _232
REMARK   92  A    between atoms: _235  and  _237
REMARK   93  A    between atoms: _237  and  _238
REMARK   94  A    between atoms: _237  and  _240
REMARK   95  A    between atoms: _240  and  _241
REMARK   96  A    between atoms: _246  and  _248
REMARK   97  A    between atoms: _248  and  _249
REMARK   98  A    between atoms: _248  and  _251
REMARK   99  A    between atoms: _251  and  _252
REMARK  100  A    between atoms: _255  and  _257
REMARK  101  A    between atoms: _257  and  _258
REMARK  102  A    between atoms: _257  and  _260
REMARK  103  A    between atoms: _260  and  _261
REMARK  104  A    between atoms: _264  and  _266
REMARK  105  A    between atoms: _266  and  _267
REMARK  106  A    between atoms: _266  and  _269
REMARK  107  A    between atoms: _269  and  _270
REMARK  108  A    between atoms: _275  and  _277
REMARK  109  A    between atoms: _277  and  _278
REMARK  110  A    between atoms: _277  and  _280
REMARK  111  A    between atoms: _280  and  _281
REMARK  112  A    between atoms: _284  and  _286
REMARK  113  A    between atoms: _286  and  _287
REMARK  114  A    between atoms: _286  and  _289
REMARK  115  A    between atoms: _289  and  _290
REMARK  116  A    between atoms: _295  and  _297
REMARK  117  A    between atoms: _297  and  _298
REMARK  118  A    between atoms: _297  and  _300
REMARK  119  A    between atoms: _300  and  _301
REMARK  120  A    between atoms: _306  and  _308
REMARK  121  A    between atoms: _308  and  _309
REMARK  122  A    between atoms: _308  and  _311
REMARK  123  A    between atoms: _311  and  _312
REMARK  124  A    between atoms: _315  and  _317
REMARK  125  A    between atoms: _317  and  _318
REMARK  126  A    between atoms: _317  and  _320
REMARK  127  A    between atoms: _323  and  _325
REMARK  128  A    between atoms: _325  and  _326
REMARK  129  A    between atoms: _325  and  _328
REMARK  130  A    between atoms: _328  and  _329
REMARK  131  A    between atoms: _333  and  _334
REMARK  132  A    between atoms: _339  and  _341
REMARK  133  A    between atoms: _341  and  _342
REMARK  134  A    between atoms: _341  and  _344
REMARK  135  A    between atoms: _344  and  _345
REMARK  136  A    between atoms: _345  and  _346
REMARK  137  A    between atoms: _349  and  _351
REMARK  138  A    between atoms: _351  and  _352
REMARK  139  A    between atoms: _355  and  _357
REMARK  140  A    between atoms: _357  and  _358
REMARK  141  A    between atoms: _357  and  _360
REMARK  142  A    between atoms: _360  and  _361
REMARK  143  A    between atoms: _364  and  _366
REMARK  144  A    between atoms: _366  and  _367
REMARK  145  A    between atoms: _366  and  _369
REMARK  146  A    between atoms: _369  and  _370
REMARK  147  A    between atoms: _370  and  _371
REMARK  148  A    between atoms: _374  and  _376
REMARK  149  A    between atoms: _376  and  _377
REMARK  150  A    between atoms: _376  and  _379
REMARK  151  A    between atoms: _379  and  _380
REMARK  152  A    between atoms: _385  and  _387
REMARK  153  A    between atoms: _387  and  _388
REMARK  154  A    between atoms: _390  and  _392
REMARK  155  A    between atoms: _392  and  _393
REMARK  156  A    between atoms: _392  and  _395
REMARK  157  A    between atoms: _398  and  _400
REMARK  158  A    between atoms: _400  and  _401
REMARK  159  A    between atoms: _404  and  _406
REMARK  160  A    between atoms: _406  and  _407
REMARK  161  A    between atoms: _406  and  _409
REMARK  162  A    between atoms: _409  and  _410
REMARK  163  A    between atoms: _415  and  _417
REMARK  164  A    between atoms: _417  and  _418
REMARK  165  A    between atoms: _417  and  _420
REMARK  166  A    between atoms: _420  and  _421
REMARK  167  A    between atoms: _421  and  _422
REMARK  168  A    between atoms: _422  and  _423
REMARK  169  A    between atoms: _423  and  _424
REMARK  170  A    between atoms: _428  and  _430
REMARK  171  A    between atoms: _430  and  _431
REMARK  172  A    between atoms: _430  and  _433
REMARK  173  A    between atoms: _433  and  _434
REMARK  174  A    between atoms: _437  and  _439
REMARK  175  A    between atoms: _439  and  _440
REMARK  176  A    between atoms: _439  and  _442
REMARK  177  A    between atoms: _442  and  _443
REMARK  178  A    between atoms: _448  and  _450
REMARK  179  A    between atoms: _450  and  _451
REMARK  180  A    between atoms: _453  and  _455
REMARK  181  A    between atoms: _455  and  _456
REMARK  182  A    between atoms: _455  and  _458
REMARK  183  A    between atoms: _458  and  _459
REMARK  184  A    between atoms: _459  and  _460
REMARK  185  A    between atoms: _460  and  _461
REMARK  186  A    between atoms: _461  and  _462
REMARK  187  A    between atoms: _466  and  _468
REMARK  188  A    between atoms: _468  and  _469
REMARK  189  A    between atoms: _468  and  _471
REMARK  190  A    between atoms: _471  and  _472
REMARK  191  A    between atoms: _472  and  _473
REMARK  192  A    between atoms: _473  and  _474
REMARK  193  A    between atoms: _483  and  _485
REMARK  194  A    between atoms: _485  and  _486
REMARK  195  A    between atoms: _485  and  _488
REMARK  196  A    between atoms: _488  and  _489
REMARK  197  A    between atoms: _494  and  _496
REMARK  198  A    between atoms: _496  and  _497
REMARK  199  A    between atoms: _496  and  _499
REMARK  200  A    between atoms: _499  and  _500
REMARK  201  A    between atoms: _505  and  _506
REMARK  202  A    between atoms: _508  and  _510
REMARK  203  A    between atoms: _510  and  _511
REMARK  204  A    between atoms: _510  and  _513
REMARK  205  A    between atoms: _513  and  _514
REMARK  206  A    between atoms: _514  and  _515
REMARK  207  A    between atoms: _515  and  _516
REMARK  208  A    between atoms: _516  and  _517
REMARK  209  A    between atoms: _521  and  _523
REMARK  210  A    between atoms: _523  and  _524
REMARK  211  A    between atoms: _523  and  _526
REMARK  212  A    between atoms: _526  and  _527
REMARK  213  A    between atoms: _529  and  _531
REMARK  214  A    between atoms: _531  and  _532
REMARK  215  A    between atoms: _531  and  _534
REMARK  216  A    between atoms: _534  and  _535
REMARK  217  A    between atoms: _538  and  _540
REMARK  218  A    between atoms: _540  and  _541
REMARK  219  A    between atoms: _540  and  _543
REMARK  220  A    between atoms: _543  and  _544
REMARK  221  A    between atoms: _544  and  _545
REMARK  222  A    between atoms: _548  and  _550
REMARK  223  A    between atoms: _550  and  _551
REMARK  224  A    between atoms: _554  and  _556
REMARK  225  A    between atoms: _556  and  _557
REMARK  226  A    between atoms: _556  and  _559
REMARK  227  A    between atoms: _559  and  _560
REMARK  228  A    between atoms: _562  and  _564
REMARK  229  A    between atoms: _564  and  _565
REMARK  230  A    between atoms: _567  and  _569
REMARK  231  A    between atoms: _569  and  _570
REMARK  232  A    between atoms: _569  and  _572
REMARK  233  A    between atoms: _572  and  _573
REMARK  234  A    between atoms: _576  and  _578
REMARK  235  A    between atoms: _578  and  _579
REMARK  236  A    between atoms: _581  and  _583
REMARK  237  A    between atoms: _583  and  _584
REMARK  238  A    between atoms: _583  and  _586
REMARK  239  A    between atoms: _586  and  _587
REMARK  240  A    between atoms: _592  and  _594
REMARK  241  A    between atoms: _594  and  _595
REMARK  242  A    between atoms: _594  and  _597
REMARK  243  A    between atoms: _597  and  _598
REMARK  244  A    between atoms: _598  and  _599
REMARK  245  A    between atoms: _606  and  _607
REMARK  246  A    between atoms: _607  and  _623
REMARK  247  A    between atoms: _608  and  _610
REMARK  248  A    between atoms: _610  and  _611
REMARK  249  A    between atoms: _611  and  _612
REMARK  250  A    between atoms: _616  and  _618
REMARK  251  A    between atoms: _618  and  _619
REMARK  252  A    between atoms: _618  and  _626
REMARK  253  A    between atoms: _619  and  _620
REMARK  254  A    between atoms: _620  and  _621
REMARK  255  A    between atoms: _621  and  _622
REMARK  256  A    between atoms: _622  and  _623
REMARK  257  A    between atoms: _628  and  _630
REMARK  258  A    between atoms: _630  and  _631
REMARK  259  A    between atoms: _630  and  _633
REMARK  260  A    between atoms: _633  and  _634
REMARK  261  A    between atoms: _637  and  _639
REMARK  262  A    between atoms: _639  and  _640
REMARK  263  A    between atoms: _642  and  _644
REMARK  264  A    between atoms: _644  and  _645
REMARK  265  A    between atoms: _648  and  _650
REMARK  266  A    between atoms: _650  and  _651
REMARK  267  A    between atoms: _650  and  _653
REMARK  268  A    between atoms: _653  and  _654
REMARK  269  A    between atoms: _659  and  _660
REMARK                            x       y       z     vdW  Elec       q    Type
REMARK                         _______ _______ _______ _____ _____    ______ ____
ROOT
ATOM      1  O   HOH     1      46.015  29.304  30.811  0.00  0.00    +0.000 OA
ENDROOT
TORSDOF 0
REMARK  Name = ../refined-set-2016/2pyi/2pyi_pocket.pdb
REMARK  269 active torsions:
REMARK  status: ('A' for Active; 'I' for Inactive)
REMARK    1  A    between atoms: _1  and  _3
REMARK    2  A    between atoms: _3  and  _4
REMARK    3  A    between atoms: _3  and  _6
REMARK    4  A    between atoms: _6  and  _7
REMARK    5  A    between atoms: _12  and  _13
REMARK    6  A    between atoms: _15  and  _17
REMARK    7  A    between atoms: _17  and  _18
REMARK    8  A    between atoms: _17  and  _20
REMARK    9  A    between atoms: _20  and  _21
REMARK   10  A    between atoms: _21  and  _22
REMARK   11  A    between atoms: _25  and  _27
REMARK   12  A    between atoms: _27  and  _28
REMARK   13  A    between atoms: _27  and  _30
REMARK   14  A    between atoms: _30  and  _31
REMARK   15  A    between atoms: _36  and  _38
REMARK   16  A    between atoms: _38  and  _39
REMARK   17  A    between atoms: _41  and  _43
REMARK   18  A    between atoms: _43  and  _44
REMARK   19  A    between atoms: _46  and  _48
REMARK   20  A    between atoms: _48  and  _49
REMARK   21  A    between atoms: _48  and  _51
REMARK   22  A    between atoms: _51  and  _52
REMARK   23  A    between atoms: _55  and  _57
REMARK   24  A    between atoms: _57  and  _58
REMARK   25  A    between atoms: _60  and  _62
REMARK   26  A    between atoms: _62  and  _63
REMARK   27  A    between atoms: _62  and  _65
REMARK   28  A    between atoms: _65  and  _66
REMARK   29  A    between atoms: _66  and  _67
REMARK   30  A    between atoms: _67  and  _68
REMARK   31  A    between atoms: _77  and  _79
REMARK   32  A    between atoms: _79  and  _80
REMARK   33  A    between atoms: _79  and  _82
REMARK   34  A    between atoms: _82  and  _83
REMARK   35  A    between atoms: _86  and  _88
REMARK   36  A    between atoms: _88  and  _89
REMARK   37  A    between atoms: _92  and  _94
REMARK   38  A    between atoms: _94  and  _95
REMARK   39  A    between atoms: _94  and  _97
REMARK   40  A    between atoms: _97  and  _98
REMARK   41  A    between atoms: _104  and  _106
REMARK   42  A    between atoms: _106  and  _107
REMARK   43  A    between atoms: _106  and  _109
REMARK   44  A    between atoms: _109  and  _110
REMARK   45  A    between atoms: _115  and  _116
REMARK   46  A    between atoms: _119  and  _120
REMARK   47  A    between atoms: _125  and  _127
REMARK   48  A    between atoms: _127  and  _128
REMARK   49  A    between atoms: _127  and  _130
REMARK   50  A    between atoms: _130  and  _131
REMARK   51  A    between atoms: _136  and  _138
REMARK   52  A    between atoms: _138  and  _139
REMARK   53  A    between atoms: _138  and  _141
REMARK   54  A    between atoms: _141  and  _142
REMARK   55  A    between atoms: _145  and  _147
REMARK   56  A    between atoms: _147  and  _148
REMARK   57  A    between atoms: _147  and  _150
REMARK   58  A    between atoms: _150  and  _151
REMARK   59  A    between atoms: _156  and  _158
REMARK   60  A    between atoms: _158  and  _159
REMARK   61  A    between atoms: _158  and  _161
REMARK   62  A    between atoms: _161  and  _162
REMARK   63  A    between atoms: _168  and  _170
REMARK   64  A    between atoms: _170  and  _171
REMARK   65  A    between atoms: _170  and  _173
REMARK   66  A    between atoms: _173  and  _174
REMARK   67  A    between atoms: _180  and  _182
REMARK   68  A    between atoms: _182  and  _183
REMARK   69  A    between atoms: _182  and  _185
REMARK   70  A    between atoms: _185  and  _186
REMARK   71  A    between atoms: _186  and  _187
REMARK   72  A    between atoms: _190  and  _192
REMARK   73  A    between atoms: _192  and  _193
REMARK   74  A    between atoms: _195  and  _197
REMARK   75  A    between atoms: _197  and  _198
REMARK   76  A    between atoms: _197  and  _200
REMARK   77  A    between atoms: _200  and  _201
REMARK   78  A    between atoms: _201  and  _202
REMARK   79  A    between atoms: _202  and  _203
REMARK   80  A    between atoms: _203  and  _204
REMARK   81  A    between atoms: _208  and  _210
REMARK   82  A    between atoms: _210  and  _211
REMARK   83  A    between atoms: _210  and  _213
REMARK   84  A    between atoms: _213  and  _214
REMARK   85  A    between atoms: _214  and  _215
REMARK   86  A    between atoms: _215  and  _216
REMARK   87  A    between atoms: _225  and  _227
REMARK   88  A    between atoms: _227  and  _228
REMARK   89  A    between atoms: _227  and  _230
REMARK   90  A    between atoms: _230  and  _231
REMARK   91  A    between atoms: _231  and  _232
REMARK   92  A    between atoms: _235  and  _237
REMARK   93  A    between atoms: _237  and  _238
REMARK   94  A    between atoms: _237  and  _240
REMARK   95  A    between atoms: _240  and  _241
REMARK   96  A    between atoms: _246  and  _248
REMARK   97  A    between atoms: _248  and  _249
REMARK   98  A    between atoms: _248  and  _251
REMARK   99  A    between atoms: _251  and  _252
REMARK  100  A    between atoms: _255  and  _257
REMARK  101  A    between atoms: _257  and  _258
REMARK  102  A    between atoms: _257  and  _260
REMARK  103  A    between atoms: _260  and  _261
REMARK  104  A    between atoms: _264  and  _266
REMARK  105  A    between atoms: _266  and  _267
REMARK  106  A    between atoms: _266  and  _269
REMARK  107  A    between atoms: _269  and  _270
REMARK  108  A    between atoms: _275  and  _277
REMARK  109  A    between atoms: _277  and  _278
REMARK  110  A    between atoms: _277  and  _280
REMARK  111  A    between atoms: _280  and  _281
REMARK  112  A    between atoms: _284  and  _286
REMARK  113  A    between atoms: _286  and  _287
REMARK  114  A    between atoms: _286  and  _289
REMARK  115  A    between atoms: _289  and  _290
REMARK  116  A    between atoms: _295  and  _297
REMARK  117  A    between atoms: _297  and  _298
REMARK  118  A    between atoms: _297  and  _300
REMARK  119  A    between atoms: _300  and  _301
REMARK  120  A    between atoms: _306  and  _308
REMARK  121  A    between atoms: _308  and  _309
REMARK  122  A    between atoms: _308  and  _311
REMARK  123  A    between atoms: _311  and  _312
REMARK  124  A    between atoms: _315  and  _317
REMARK  125  A    between atoms: _317  and  _318
REMARK  126  A    between atoms: _317  and  _320
REMARK  127  A    between atoms: _323  and  _325
REMARK  128  A    between atoms: _325  and  _326
REMARK  129  A    between atoms: _325  and  _328
REMARK  130  A    between atoms: _328  and  _329
REMARK  131  A    between atoms: _333  and  _334
REMARK  132  A    between atoms: _339  and  _341
REMARK  133  A    between atoms: _341  and  _342
REMARK  134  A    between atoms: _341  and  _344
REMARK  135  A    between atoms: _344  and  _345
REMARK  136  A    between atoms: _345  and  _346
REMARK  137  A    between atoms: _349  and  _351
REMARK  138  A    between atoms: _351  and  _352
REMARK  139  A    between atoms: _355  and  _357
REMARK  140  A    between atoms: _357  and  _358
REMARK  141  A    between atoms: _357  and  _360
REMARK  142  A    between atoms: _360  and  _361
REMARK  143  A    between atoms: _364  and  _366
REMARK  144  A    between atoms: _366  and  _367
REMARK  145  A    between atoms: _366  and  _369
REMARK  146  A    between atoms: _369  and  _370
REMARK  147  A    between atoms: _370  and  _371
REMARK  148  A    between atoms: _374  and  _376
REMARK  149  A    between atoms: _376  and  _377
REMARK  150  A    between atoms: _376  and  _379
REMARK  151  A    between atoms: _379  and  _380
REMARK  152  A    between atoms: _385  and  _387
REMARK  153  A    between atoms: _387  and  _388
REMARK  154  A    between atoms: _390  and  _392
REMARK  155  A    between atoms: _392  and  _393
REMARK  156  A    between atoms: _392  and  _395
REMARK  157  A    between atoms: _398  and  _400
REMARK  158  A    between atoms: _400  and  _401
REMARK  159  A    between atoms: _404  and  _406
REMARK  160  A    between atoms: _406  and  _407
REMARK  161  A    between atoms: _406  and  _409
REMARK  162  A    between atoms: _409  and  _410
REMARK  163  A    between atoms: _415  and  _417
REMARK  164  A    between atoms: _417  and  _418
REMARK  165  A    between atoms: _417  and  _420
REMARK  166  A    between atoms: _420  and  _421
REMARK  167  A    between atoms: _421  and  _422
REMARK  168  A    between atoms: _422  and  _423
REMARK  169  A    between atoms: _423  and  _424
REMARK  170  A    between atoms: _428  and  _430
REMARK  171  A    between atoms: _430  and  _431
REMARK  172  A    between atoms: _430  and  _433
REMARK  173  A    between atoms: _433  and  _434
REMARK  174  A    between atoms: _437  and  _439
REMARK  175  A    between atoms: _439  and  _440
REMARK  176  A    between atoms: _439  and  _442
REMARK  177  A    between atoms: _442  and  _443
REMARK  178  A    between atoms: _448  and  _450
REMARK  179  A    between atoms: _450  and  _451
REMARK  180  A    between atoms: _453  and  _455
REMARK  181  A    between atoms: _455  and  _456
REMARK  182  A    between atoms: _455  and  _458
REMARK  183  A    between atoms: _458  and  _459
REMARK  184  A    between atoms: _459  and  _460
REMARK  185  A    between atoms: _460  and  _461
REMARK  186  A    between atoms: _461  and  _462
REMARK  187  A    between atoms: _466  and  _468
REMARK  188  A    between atoms: _468  and  _469
REMARK  189  A    between atoms: _468  and  _471
REMARK  190  A    between atoms: _471  and  _472
REMARK  191  A    between atoms: _472  and  _473
REMARK  192  A    between atoms: _473  and  _474
REMARK  193  A    between atoms: _483  and  _485
REMARK  194  A    between atoms: _485  and  _486
REMARK  195  A    between atoms: _485  and  _488
REMARK  196  A    between atoms: _488  and  _489
REMARK  197  A    between atoms: _494  and  _496
REMARK  198  A    between atoms: _496  and  _497
REMARK  199  A    between atoms: _496  and  _499
REMARK  200  A    between atoms: _499  and  _500
REMARK  201  A    between atoms: _505  and  _506
REMARK  202  A    between atoms: _508  and  _510
REMARK  203  A    between atoms: _510  and  _511
REMARK  204  A    between atoms: _510  and  _513
REMARK  205  A    between atoms: _513  and  _514
REMARK  206  A    between atoms: _514  and  _515
REMARK  207  A    between atoms: _515  and  _516
REMARK  208  A    between atoms: _516  and  _517
REMARK  209  A    between atoms: _521  and  _523
REMARK  210  A    between atoms: _523  and  _524
REMARK  211  A    between atoms: _523  and  _526
REMARK  212  A    between atoms: _526  and  _527
REMARK  213  A    between atoms: _529  and  _531
REMARK  214  A    between atoms: _531  and  _532
REMARK  215  A    between atoms: _531  and  _534
REMARK  216  A    between atoms: _534  and  _535
REMARK  217  A    between atoms: _538  and  _540
REMARK  218  A    between atoms: _540  and  _541
REMARK  219  A    between atoms: _540  and  _543
REMARK  220  A    between atoms: _543  and  _544
REMARK  221  A    between atoms: _544  and  _545
REMARK  222  A    between atoms: _548  and  _550
REMARK  223  A    between atoms: _550  and  _551
REMARK  224  A    between atoms: _554  and  _556
REMARK  225  A    between atoms: _556  and  _557
REMARK  226  A    between atoms: _556  and  _559
REMARK  227  A    between atoms: _559  and  _560
REMARK  228  A    between atoms: _562  and  _564
REMARK  229  A    between atoms: _564  and  _565
REMARK  230  A    between atoms: _567  and  _569
REMARK  231  A    between atoms: _569  and  _570
REMARK  232  A    between atoms: _569  and  _572
REMARK  233  A    between atoms: _572  and  _573
REMARK  234  A    between atoms: _576  and  _578
REMARK  235  A    between atoms: _578  and  _579
REMARK  236  A    between atoms: _581  and  _583
REMARK  237  A    between atoms: _583  and  _584
REMARK  238  A    between atoms: _583  and  _586
REMARK  239  A    between atoms: _586  and  _587
REMARK  240  A    between atoms: _592  and  _594
REMARK  241  A    between atoms: _594  and  _595
REMARK  242  A    between atoms: _594  and  _597
REMARK  243  A    between atoms: _597  and  _598
REMARK  244  A    between atoms: _598  and  _599
REMARK  245  A    between atoms: _606  and  _607
REMARK  246  A    between atoms: _607  and  _623
REMARK  247  A    between atoms: _608  and  _610
REMARK  248  A    between atoms: _610  and  _611
REMARK  249  A    between atoms: _611  and  _612
REMARK  250  A    between atoms: _616  and  _618
REMARK  251  A    between atoms: _618  and  _619
REMARK  252  A    between atoms: _618  and  _626
REMARK  253  A    between atoms: _619  and  _620
REMARK  254  A    between atoms: _620  and  _621
REMARK  255  A    between atoms: _621  and  _622
REMARK  256  A    between atoms: _622  and  _623
REMARK  257  A    between atoms: _628  and  _630
REMARK  258  A    between atoms: _630  and  _631
REMARK  259  A    between atoms: _630  and  _633
REMARK  260  A    between atoms: _633  and  _634
REMARK  261  A    between atoms: _637  and  _639
REMARK  262  A    between atoms: _639  and  _640
REMARK  263  A    between atoms: _642  and  _644
REMARK  264  A    between atoms: _644  and  _645
REMARK  265  A    between atoms: _648  and  _650
REMARK  266  A    between atoms: _650  and  _651
REMARK  267  A    between atoms: _650  and  _653
REMARK  268  A    between atoms: _653  and  _654
REMARK  269  A    between atoms: _659  and  _660
REMARK                            x       y       z     vdW  Elec       q    Type
REMARK                         _______ _______ _______ _____ _____    ______ ____
ROOT
ATOM      1  O   HOH     1      29.781  25.883  28.786  0.00  0.00    +0.000 OA
ENDROOT
TORSDOF 0
REMARK  Name = ../refined-set-2016/2pyi/2pyi_pocket.pdb
REMARK  269 active torsions:
REMARK  status: ('A' for Active; 'I' for Inactive)
REMARK    1  A    between atoms: _1  and  _3
REMARK    2  A    between atoms: _3  and  _4
REMARK    3  A    between atoms: _3  and  _6
REMARK    4  A    between atoms: _6  and  _7
REMARK    5  A    between atoms: _12  and  _13
REMARK    6  A    between atoms: _15  and  _17
REMARK    7  A    between atoms: _17  and  _18
REMARK    8  A    between atoms: _17  and  _20
REMARK    9  A    between atoms: _20  and  _21
REMARK   10  A    between atoms: _21  and  _22
REMARK   11  A    between atoms: _25  and  _27
REMARK   12  A    between atoms: _27  and  _28
REMARK   13  A    between atoms: _27  and  _30
REMARK   14  A    between atoms: _30  and  _31
REMARK   15  A    between atoms: _36  and  _38
REMARK   16  A    between atoms: _38  and  _39
REMARK   17  A    between atoms: _41  and  _43
REMARK   18  A    between atoms: _43  and  _44
REMARK   19  A    between atoms: _46  and  _48
REMARK   20  A    between atoms: _48  and  _49
REMARK   21  A    between atoms: _48  and  _51
REMARK   22  A    between atoms: _51  and  _52
REMARK   23  A    between atoms: _55  and  _57
REMARK   24  A    between atoms: _57  and  _58
REMARK   25  A    between atoms: _60  and  _62
REMARK   26  A    between atoms: _62  and  _63
REMARK   27  A    between atoms: _62  and  _65
REMARK   28  A    between atoms: _65  and  _66
REMARK   29  A    between atoms: _66  and  _67
REMARK   30  A    between atoms: _67  and  _68
REMARK   31  A    between atoms: _77  and  _79
REMARK   32  A    between atoms: _79  and  _80
REMARK   33  A    between atoms: _79  and  _82
REMARK   34  A    between atoms: _82  and  _83
REMARK   35  A    between atoms: _86  and  _88
REMARK   36  A    between atoms: _88  and  _89
REMARK   37  A    between atoms: _92  and  _94
REMARK   38  A    between atoms: _94  and  _95
REMARK   39  A    between atoms: _94  and  _97
REMARK   40  A    between atoms: _97  and  _98
REMARK   41  A    between atoms: _104  and  _106
REMARK   42  A    between atoms: _106  and  _107
REMARK   43  A    between atoms: _106  and  _109
REMARK   44  A    between atoms: _109  and  _110
REMARK   45  A    between atoms: _115  and  _116
REMARK   46  A    between atoms: _119  and  _120
REMARK   47  A    between atoms: _125  and  _127
REMARK   48  A    between atoms: _127  and  _128
REMARK   49  A    between atoms: _127  and  _130
REMARK   50  A    between atoms: _130  and  _131
REMARK   51  A    between atoms: _136  and  _138
REMARK   52  A    between atoms: _138  and  _139
REMARK   53  A    between atoms: _138  and  _141
REMARK   54  A    between atoms: _141  and  _142
REMARK   55  A    between atoms: _145  and  _147
REMARK   56  A    between atoms: _147  and  _148
REMARK   57  A    between atoms: _147  and  _150
REMARK   58  A    between atoms: _150  and  _151
REMARK   59  A    between atoms: _156  and  _158
REMARK   60  A    between atoms: _158  and  _159
REMARK   61  A    between atoms: _158  and  _161
REMARK   62  A    between atoms: _161  and  _162
REMARK   63  A    between atoms: _168  and  _170
REMARK   64  A    between atoms: _170  and  _171
REMARK   65  A    between atoms: _170  and  _173
REMARK   66  A    between atoms: _173  and  _174
REMARK   67  A    between atoms: _180  and  _182
REMARK   68  A    between atoms: _182  and  _183
REMARK   69  A    between atoms: _182  and  _185
REMARK   70  A    between atoms: _185  and  _186
REMARK   71  A    between atoms: _186  and  _187
REMARK   72  A    between atoms: _190  and  _192
REMARK   73  A    between atoms: _192  and  _193
REMARK   74  A    between atoms: _195  and  _197
REMARK   75  A    between atoms: _197  and  _198
REMARK   76  A    between atoms: _197  and  _200
REMARK   77  A    between atoms: _200  and  _201
REMARK   78  A    between atoms: _201  and  _202
REMARK   79  A    between atoms: _202  and  _203
REMARK   80  A    between atoms: _203  and  _204
REMARK   81  A    between atoms: _208  and  _210
REMARK   82  A    between atoms: _210  and  _211
REMARK   83  A    between atoms: _210  and  _213
REMARK   84  A    between atoms: _213  and  _214
REMARK   85  A    between atoms: _214  and  _215
REMARK   86  A    between atoms: _215  and  _216
REMARK   87  A    between atoms: _225  and  _227
REMARK   88  A    between atoms: _227  and  _228
REMARK   89  A    between atoms: _227  and  _230
REMARK   90  A    between atoms: _230  and  _231
REMARK   91  A    between atoms: _231  and  _232
REMARK   92  A    between atoms: _235  and  _237
REMARK   93  A    between atoms: _237  and  _238
REMARK   94  A    between atoms: _237  and  _240
REMARK   95  A    between atoms: _240  and  _241
REMARK   96  A    between atoms: _246  and  _248
REMARK   97  A    between atoms: _248  and  _249
REMARK   98  A    between atoms: _248  and  _251
REMARK   99  A    between atoms: _251  and  _252
REMARK  100  A    between atoms: _255  and  _257
REMARK  101  A    between atoms: _257  and  _258
REMARK  102  A    between atoms: _257  and  _260
REMARK  103  A    between atoms: _260  and  _261
REMARK  104  A    between atoms: _264  and  _266
REMARK  105  A    between atoms: _266  and  _267
REMARK  106  A    between atoms: _266  and  _269
REMARK  107  A    between atoms: _269  and  _270
REMARK  108  A    between atoms: _275  and  _277
REMARK  109  A    between atoms: _277  and  _278
REMARK  110  A    between atoms: _277  and  _280
REMARK  111  A    between atoms: _280  and  _281
REMARK  112  A    between atoms: _284  and  _286
REMARK  113  A    between atoms: _286  and  _287
REMARK  114  A    between atoms: _286  and  _289
REMARK  115  A    between atoms: _289  and  _290
REMARK  116  A    between atoms: _295  and  _297
REMARK  117  A    between atoms: _297  and  _298
REMARK  118  A    between atoms: _297  and  _300
REMARK  119  A    between atoms: _300  and  _301
REMARK  120  A    between atoms: _306  and  _308
REMARK  121  A    between atoms: _308  and  _309
REMARK  122  A    between atoms: _308  and  _311
REMARK  123  A    between atoms: _311  and  _312
REMARK  124  A    between atoms: _315  and  _317
REMARK  125  A    between atoms: _317  and  _318
REMARK  126  A    between atoms: _317  and  _320
REMARK  127  A    between atoms: _323  and  _325
REMARK  128  A    between atoms: _325  and  _326
REMARK  129  A    between atoms: _325  and  _328
REMARK  130  A    between atoms: _328  and  _329
REMARK  131  A    between atoms: _333  and  _334
REMARK  132  A    between atoms: _339  and  _341
REMARK  133  A    between atoms: _341  and  _342
REMARK  134  A    between atoms: _341  and  _344
REMARK  135  A    between atoms: _344  and  _345
REMARK  136  A    between atoms: _345  and  _346
REMARK  137  A    between atoms: _349  and  _351
REMARK  138  A    between atoms: _351  and  _352
REMARK  139  A    between atoms: _355  and  _357
REMARK  140  A    between atoms: _357  and  _358
REMARK  141  A    between atoms: _357  and  _360
REMARK  142  A    between atoms: _360  and  _361
REMARK  143  A    between atoms: _364  and  _366
REMARK  144  A    between atoms: _366  and  _367
REMARK  145  A    between atoms: _366  and  _369
REMARK  146  A    between atoms: _369  and  _370
REMARK  147  A    between atoms: _370  and  _371
REMARK  148  A    between atoms: _374  and  _376
REMARK  149  A    between atoms: _376  and  _377
REMARK  150  A    between atoms: _376  and  _379
REMARK  151  A    between atoms: _379  and  _380
REMARK  152  A    between atoms: _385  and  _387
REMARK  153  A    between atoms: _387  and  _388
REMARK  154  A    between atoms: _390  and  _392
REMARK  155  A    between atoms: _392  and  _393
REMARK  156  A    between atoms: _392  and  _395
REMARK  157  A    between atoms: _398  and  _400
REMARK  158  A    between atoms: _400  and  _401
REMARK  159  A    between atoms: _404  and  _406
REMARK  160  A    between atoms: _406  and  _407
REMARK  161  A    between atoms: _406  and  _409
REMARK  162  A    between atoms: _409  and  _410
REMARK  163  A    between atoms: _415  and  _417
REMARK  164  A    between atoms: _417  and  _418
REMARK  165  A    between atoms: _417  and  _420
REMARK  166  A    between atoms: _420  and  _421
REMARK  167  A    between atoms: _421  and  _422
REMARK  168  A    between atoms: _422  and  _423
REMARK  169  A    between atoms: _423  and  _424
REMARK  170  A    between atoms: _428  and  _430
REMARK  171  A    between atoms: _430  and  _431
REMARK  172  A    between atoms: _430  and  _433
REMARK  173  A    between atoms: _433  and  _434
REMARK  174  A    between atoms: _437  and  _439
REMARK  175  A    between atoms: _439  and  _440
REMARK  176  A    between atoms: _439  and  _442
REMARK  177  A    between atoms: _442  and  _443
REMARK  178  A    between atoms: _448  and  _450
REMARK  179  A    between atoms: _450  and  _451
REMARK  180  A    between atoms: _453  and  _455
REMARK  181  A    between atoms: _455  and  _456
REMARK  182  A    between atoms: _455  and  _458
REMARK  183  A    between atoms: _458  and  _459
REMARK  184  A    between atoms: _459  and  _460
REMARK  185  A    between atoms: _460  and  _461
REMARK  186  A    between atoms: _461  and  _462
REMARK  187  A    between atoms: _466  and  _468
REMARK  188  A    between atoms: _468  and  _469
REMARK  189  A    between atoms: _468  and  _471
REMARK  190  A    between atoms: _471  and  _472
REMARK  191  A    between atoms: _472  and  _473
REMARK  192  A    between atoms: _473  and  _474
REMARK  193  A    between atoms: _483  and  _485
REMARK  194  A    between atoms: _485  and  _486
REMARK  195  A    between atoms: _485  and  _488
REMARK  196  A    between atoms: _488  and  _489
REMARK  197  A    between atoms: _494  and  _496
REMARK  198  A    between atoms: _496  and  _497
REMARK  199  A    between atoms: _496  and  _499
REMARK  200  A    between atoms: _499  and  _500
REMARK  201  A    between atoms: _505  and  _506
REMARK  202  A    between atoms: _508  and  _510
REMARK  203  A    between atoms: _510  and  _511
REMARK  204  A    between atoms: _510  and  _513
REMARK  205  A    between atoms: _513  and  _514
REMARK  206  A    between atoms: _514  and  _515
REMARK  207  A    between atoms: _515  and  _516
REMARK  208  A    between atoms: _516  and  _517
REMARK  209  A    between atoms: _521  and  _523
REMARK  210  A    between atoms: _523  and  _524
REMARK  211  A    between atoms: _523  and  _526
REMARK  212  A    between atoms: _526  and  _527
REMARK  213  A    between atoms: _529  and  _531
REMARK  214  A    between atoms: _531  and  _532
REMARK  215  A    between atoms: _531  and  _534
REMARK  216  A    between atoms: _534  and  _535
REMARK  217  A    between atoms: _538  and  _540
REMARK  218  A    between atoms: _540  and  _541
REMARK  219  A    between atoms: _540  and  _543
REMARK  220  A    between atoms: _543  and  _544
REMARK  221  A    between atoms: _544  and  _545
REMARK  222  A    between atoms: _548  and  _550
REMARK  223  A    between atoms: _550  and  _551
REMARK  224  A    between atoms: _554  and  _556
REMARK  225  A    between atoms: _556  and  _557
REMARK  226  A    between atoms: _556  and  _559
REMARK  227  A    between atoms: _559  and  _560
REMARK  228  A    between atoms: _562  and  _564
REMARK  229  A    between atoms: _564  and  _565
REMARK  230  A    between atoms: _567  and  _569
REMARK  231  A    between atoms: _569  and  _570
REMARK  232  A    between atoms: _569  and  _572
REMARK  233  A    between atoms: _572  and  _573
REMARK  234  A    between atoms: _576  and  _578
REMARK  235  A    between atoms: _578  and  _579
REMARK  236  A    between atoms: _581  and  _583
REMARK  237  A    between atoms: _583  and  _584
REMARK  238  A    between atoms: _583  and  _586
REMARK  239  A    between atoms: _586  and  _587
REMARK  240  A    between atoms: _592  and  _594
REMARK  241  A    between atoms: _594  and  _595
REMARK  242  A    between atoms: _594  and  _597
REMARK  243  A    between atoms: _597  and  _598
REMARK  244  A    between atoms: _598  and  _599
REMARK  245  A    between atoms: _606  and  _607
REMARK  246  A    between atoms: _607  and  _623
REMARK  247  A    between atoms: _608  and  _610
REMARK  248  A    between atoms: _610  and  _611
REMARK  249  A    between atoms: _611  and  _612
REMARK  250  A    between atoms: _616  and  _618
REMARK  251  A    between atoms: _618  and  _619
REMARK  252  A    between atoms: _618  and  _626
REMARK  253  A    between atoms: _619  and  _620
REMARK  254  A    between atoms: _620  and  _621
REMARK  255  A    between atoms: _621  and  _622
REMARK  256  A    between atoms: _622  and  _623
REMARK  257  A    between atoms: _628  and  _630
REMARK  258  A    between atoms: _630  and  _631
REMARK  259  A    between atoms: _630  and  _633
REMARK  260  A    between atoms: _633  and  _634
REMARK  261  A    between atoms: _637  and  _639
REMARK  262  A    between atoms: _639  and  _640
REMARK  263  A    between atoms: _642  and  _644
REMARK  264  A    between atoms: _644  and  _645
REMARK  265  A    between atoms: _648  and  _650
REMARK  266  A    between atoms: _650  and  _651
REMARK  267  A    between atoms: _650  and  _653
REMARK  268  A    between atoms: _653  and  _654
REMARK  269  A    between atoms: _659  and  _660
REMARK                            x       y       z     vdW  Elec       q    Type
REMARK                         _______ _______ _______ _____ _____    ______ ____
ROOT
ATOM      1  O   HOH     1      32.545  25.185  31.992  0.00  0.00    +0.000 OA
ENDROOT
TORSDOF 0
REMARK  Name = ../refined-set-2016/2pyi/2pyi_pocket.pdb
REMARK  269 active torsions:
REMARK  status: ('A' for Active; 'I' for Inactive)
REMARK    1  A    between atoms: _1  and  _3
REMARK    2  A    between atoms: _3  and  _4
REMARK    3  A    between atoms: _3  and  _6
REMARK    4  A    between atoms: _6  and  _7
REMARK    5  A    between atoms: _12  and  _13
REMARK    6  A    between atoms: _15  and  _17
REMARK    7  A    between atoms: _17  and  _18
REMARK    8  A    between atoms: _17  and  _20
REMARK    9  A    between atoms: _20  and  _21
REMARK   10  A    between atoms: _21  and  _22
REMARK   11  A    between atoms: _25  and  _27
REMARK   12  A    between atoms: _27  and  _28
REMARK   13  A    between atoms: _27  and  _30
REMARK   14  A    between atoms: _30  and  _31
REMARK   15  A    between atoms: _36  and  _38
REMARK   16  A    between atoms: _38  and  _39
REMARK   17  A    between atoms: _41  and  _43
REMARK   18  A    between atoms: _43  and  _44
REMARK   19  A    between atoms: _46  and  _48
REMARK   20  A    between atoms: _48  and  _49
REMARK   21  A    between atoms: _48  and  _51
REMARK   22  A    between atoms: _51  and  _52
REMARK   23  A    between atoms: _55  and  _57
REMARK   24  A    between atoms: _57  and  _58
REMARK   25  A    between atoms: _60  and  _62
REMARK   26  A    between atoms: _62  and  _63
REMARK   27  A    between atoms: _62  and  _65
REMARK   28  A    between atoms: _65  and  _66
REMARK   29  A    between atoms: _66  and  _67
REMARK   30  A    between atoms: _67  and  _68
REMARK   31  A    between atoms: _77  and  _79
REMARK   32  A    between atoms: _79  and  _80
REMARK   33  A    between atoms: _79  and  _82
REMARK   34  A    between atoms: _82  and  _83
REMARK   35  A    between atoms: _86  and  _88
REMARK   36  A    between atoms: _88  and  _89
REMARK   37  A    between atoms: _92  and  _94
REMARK   38  A    between atoms: _94  and  _95
REMARK   39  A    between atoms: _94  and  _97
REMARK   40  A    between atoms: _97  and  _98
REMARK   41  A    between atoms: _104  and  _106
REMARK   42  A    between atoms: _106  and  _107
REMARK   43  A    between atoms: _106  and  _109
REMARK   44  A    between atoms: _109  and  _110
REMARK   45  A    between atoms: _115  and  _116
REMARK   46  A    between atoms: _119  and  _120
REMARK   47  A    between atoms: _125  and  _127
REMARK   48  A    between atoms: _127  and  _128
REMARK   49  A    between atoms: _127  and  _130
REMARK   50  A    between atoms: _130  and  _131
REMARK   51  A    between atoms: _136  and  _138
REMARK   52  A    between atoms: _138  and  _139
REMARK   53  A    between atoms: _138  and  _141
REMARK   54  A    between atoms: _141  and  _142
REMARK   55  A    between atoms: _145  and  _147
REMARK   56  A    between atoms: _147  and  _148
REMARK   57  A    between atoms: _147  and  _150
REMARK   58  A    between atoms: _150  and  _151
REMARK   59  A    between atoms: _156  and  _158
REMARK   60  A    between atoms: _158  and  _159
REMARK   61  A    between atoms: _158  and  _161
REMARK   62  A    between atoms: _161  and  _162
REMARK   63  A    between atoms: _168  and  _170
REMARK   64  A    between atoms: _170  and  _171
REMARK   65  A    between atoms: _170  and  _173
REMARK   66  A    between atoms: _173  and  _174
REMARK   67  A    between atoms: _180  and  _182
REMARK   68  A    between atoms: _182  and  _183
REMARK   69  A    between atoms: _182  and  _185
REMARK   70  A    between atoms: _185  and  _186
REMARK   71  A    between atoms: _186  and  _187
REMARK   72  A    between atoms: _190  and  _192
REMARK   73  A    between atoms: _192  and  _193
REMARK   74  A    between atoms: _195  and  _197
REMARK   75  A    between atoms: _197  and  _198
REMARK   76  A    between atoms: _197  and  _200
REMARK   77  A    between atoms: _200  and  _201
REMARK   78  A    between atoms: _201  and  _202
REMARK   79  A    between atoms: _202  and  _203
REMARK   80  A    between atoms: _203  and  _204
REMARK   81  A    between atoms: _208  and  _210
REMARK   82  A    between atoms: _210  and  _211
REMARK   83  A    between atoms: _210  and  _213
REMARK   84  A    between atoms: _213  and  _214
REMARK   85  A    between atoms: _214  and  _215
REMARK   86  A    between atoms: _215  and  _216
REMARK   87  A    between atoms: _225  and  _227
REMARK   88  A    between atoms: _227  and  _228
REMARK   89  A    between atoms: _227  and  _230
REMARK   90  A    between atoms: _230  and  _231
REMARK   91  A    between atoms: _231  and  _232
REMARK   92  A    between atoms: _235  and  _237
REMARK   93  A    between atoms: _237  and  _238
REMARK   94  A    between atoms: _237  and  _240
REMARK   95  A    between atoms: _240  and  _241
REMARK   96  A    between atoms: _246  and  _248
REMARK   97  A    between atoms: _248  and  _249
REMARK   98  A    between atoms: _248  and  _251
REMARK   99  A    between atoms: _251  and  _252
REMARK  100  A    between atoms: _255  and  _257
REMARK  101  A    between atoms: _257  and  _258
REMARK  102  A    between atoms: _257  and  _260
REMARK  103  A    between atoms: _260  and  _261
REMARK  104  A    between atoms: _264  and  _266
REMARK  105  A    between atoms: _266  and  _267
REMARK  106  A    between atoms: _266  and  _269
REMARK  107  A    between atoms: _269  and  _270
REMARK  108  A    between atoms: _275  and  _277
REMARK  109  A    between atoms: _277  and  _278
REMARK  110  A    between atoms: _277  and  _280
REMARK  111  A    between atoms: _280  and  _281
REMARK  112  A    between atoms: _284  and  _286
REMARK  113  A    between atoms: _286  and  _287
REMARK  114  A    between atoms: _286  and  _289
REMARK  115  A    between atoms: _289  and  _290
REMARK  116  A    between atoms: _295  and  _297
REMARK  117  A    between atoms: _297  and  _298
REMARK  118  A    between atoms: _297  and  _300
REMARK  119  A    between atoms: _300  and  _301
REMARK  120  A    between atoms: _306  and  _308
REMARK  121  A    between atoms: _308  and  _309
REMARK  122  A    between atoms: _308  and  _311
REMARK  123  A    between atoms: _311  and  _312
REMARK  124  A    between atoms: _315  and  _317
REMARK  125  A    between atoms: _317  and  _318
REMARK  126  A    between atoms: _317  and  _320
REMARK  127  A    between atoms: _323  and  _325
REMARK  128  A    between atoms: _325  and  _326
REMARK  129  A    between atoms: _325  and  _328
REMARK  130  A    between atoms: _328  and  _329
REMARK  131  A    between atoms: _333  and  _334
REMARK  132  A    between atoms: _339  and  _341
REMARK  133  A    between atoms: _341  and  _342
REMARK  134  A    between atoms: _341  and  _344
REMARK  135  A    between atoms: _344  and  _345
REMARK  136  A    between atoms: _345  and  _346
REMARK  137  A    between atoms: _349  and  _351
REMARK  138  A    between atoms: _351  and  _352
REMARK  139  A    between atoms: _355  and  _357
REMARK  140  A    between atoms: _357  and  _358
REMARK  141  A    between atoms: _357  and  _360
REMARK  142  A    between atoms: _360  and  _361
REMARK  143  A    between atoms: _364  and  _366
REMARK  144  A    between atoms: _366  and  _367
REMARK  145  A    between atoms: _366  and  _369
REMARK  146  A    between atoms: _369  and  _370
REMARK  147  A    between atoms: _370  and  _371
REMARK  148  A    between atoms: _374  and  _376
REMARK  149  A    between atoms: _376  and  _377
REMARK  150  A    between atoms: _376  and  _379
REMARK  151  A    between atoms: _379  and  _380
REMARK  152  A    between atoms: _385  and  _387
REMARK  153  A    between atoms: _387  and  _388
REMARK  154  A    between atoms: _390  and  _392
REMARK  155  A    between atoms: _392  and  _393
REMARK  156  A    between atoms: _392  and  _395
REMARK  157  A    between atoms: _398  and  _400
REMARK  158  A    between atoms: _400  and  _401
REMARK  159  A    between atoms: _404  and  _406
REMARK  160  A    between atoms: _406  and  _407
REMARK  161  A    between atoms: _406  and  _409
REMARK  162  A    between atoms: _409  and  _410
REMARK  163  A    between atoms: _415  and  _417
REMARK  164  A    between atoms: _417  and  _418
REMARK  165  A    between atoms: _417  and  _420
REMARK  166  A    between atoms: _420  and  _421
REMARK  167  A    between atoms: _421  and  _422
REMARK  168  A    between atoms: _422  and  _423
REMARK  169  A    between atoms: _423  and  _424
REMARK  170  A    between atoms: _428  and  _430
REMARK  171  A    between atoms: _430  and  _431
REMARK  172  A    between atoms: _430  and  _433
REMARK  173  A    between atoms: _433  and  _434
REMARK  174  A    between atoms: _437  and  _439
REMARK  175  A    between atoms: _439  and  _440
REMARK  176  A    between atoms: _439  and  _442
REMARK  177  A    between atoms: _442  and  _443
REMARK  178  A    between atoms: _448  and  _450
REMARK  179  A    between atoms: _450  and  _451
REMARK  180  A    between atoms: _453  and  _455
REMARK  181  A    between atoms: _455  and  _456
REMARK  182  A    between atoms: _455  and  _458
REMARK  183  A    between atoms: _458  and  _459
REMARK  184  A    between atoms: _459  and  _460
REMARK  185  A    between atoms: _460  and  _461
REMARK  186  A    between atoms: _461  and  _462
REMARK  187  A    between atoms: _466  and  _468
REMARK  188  A    between atoms: _468  and  _469
REMARK  189  A    between atoms: _468  and  _471
REMARK  190  A    between atoms: _471  and  _472
REMARK  191  A    between atoms: _472  and  _473
REMARK  192  A    between atoms: _473  and  _474
REMARK  193  A    between atoms: _483  and  _485
REMARK  194  A    between atoms: _485  and  _486
REMARK  195  A    between atoms: _485  and  _488
REMARK  196  A    between atoms: _488  and  _489
REMARK  197  A    between atoms: _494  and  _496
REMARK  198  A    between atoms: _496  and  _497
REMARK  199  A    between atoms: _496  and  _499
REMARK  200  A    between atoms: _499  and  _500
REMARK  201  A    between atoms: _505  and  _506
REMARK  202  A    between atoms: _508  and  _510
REMARK  203  A    between atoms: _510  and  _511
REMARK  204  A    between atoms: _510  and  _513
REMARK  205  A    between atoms: _513  and  _514
REMARK  206  A    between atoms: _514  and  _515
REMARK  207  A    between atoms: _515  and  _516
REMARK  208  A    between atoms: _516  and  _517
REMARK  209  A    between atoms: _521  and  _523
REMARK  210  A    between atoms: _523  and  _524
REMARK  211  A    between atoms: _523  and  _526
REMARK  212  A    between atoms: _526  and  _527
REMARK  213  A    between atoms: _529  and  _531
REMARK  214  A    between atoms: _531  and  _532
REMARK  215  A    between atoms: _531  and  _534
REMARK  216  A    between atoms: _534  and  _535
REMARK  217  A    between atoms: _538  and  _540
REMARK  218  A    between atoms: _540  and  _541
REMARK  219  A    between atoms: _540  and  _543
REMARK  220  A    between atoms: _543  and  _544
REMARK  221  A    between atoms: _544  and  _545
REMARK  222  A    between atoms: _548  and  _550
REMARK  223  A    between atoms: _550  and  _551
REMARK  224  A    between atoms: _554  and  _556
REMARK  225  A    between atoms: _556  and  _557
REMARK  226  A    between atoms: _556  and  _559
REMARK  227  A    between atoms: _559  and  _560
REMARK  228  A    between atoms: _562  and  _564
REMARK  229  A    between atoms: _564  and  _565
REMARK  230  A    between atoms: _567  and  _569
REMARK  231  A    between atoms: _569  and  _570
REMARK  232  A    between atoms: _569  and  _572
REMARK  233  A    between atoms: _572  and  _573
REMARK  234  A    between atoms: _576  and  _578
REMARK  235  A    between atoms: _578  and  _579
REMARK  236  A    between atoms: _581  and  _583
REMARK  237  A    between atoms: _583  and  _584
REMARK  238  A    between atoms: _583  and  _586
REMARK  239  A    between atoms: _586  and  _587
REMARK  240  A    between atoms: _592  and  _594
REMARK  241  A    between atoms: _594  and  _595
REMARK  242  A    between atoms: _594  and  _597
REMARK  243  A    between atoms: _597  and  _598
REMARK  244  A    between atoms: _598  and  _599
REMARK  245  A    between atoms: _606  and  _607
REMARK  246  A    between atoms: _607  and  _623
REMARK  247  A    between atoms: _608  and  _610
REMARK  248  A    between atoms: _610  and  _611
REMARK  249  A    between atoms: _611  and  _612
REMARK  250  A    between atoms: _616  and  _618
REMARK  251  A    between atoms: _618  and  _619
REMARK  252  A    between atoms: _618  and  _626
REMARK  253  A    between atoms: _619  and  _620
REMARK  254  A    between atoms: _620  and  _621
REMARK  255  A    between atoms: _621  and  _622
REMARK  256  A    between atoms: _622  and  _623
REMARK  257  A    between atoms: _628  and  _630
REMARK  258  A    between atoms: _630  and  _631
REMARK  259  A    between atoms: _630  and  _633
REMARK  260  A    between atoms: _633  and  _634
REMARK  261  A    between atoms: _637  and  _639
REMARK  262  A    between atoms: _639  and  _640
REMARK  263  A    between atoms: _642  and  _644
REMARK  264  A    between atoms: _644  and  _645
REMARK  265  A    between atoms: _648  and  _650
REMARK  266  A    between atoms: _650  and  _651
REMARK  267  A    between atoms: _650  and  _653
REMARK  268  A    between atoms: _653  and  _654
REMARK  269  A    between atoms: _659  and  _660
REMARK                            x       y       z     vdW  Elec       q    Type
REMARK                         _______ _______ _______ _____ _____    ______ ____
ROOT
ATOM      1  O   HOH     1      35.219  24.618  37.304  0.00  0.00    +0.000 OA
ENDROOT
TORSDOF 0
REMARK  Name = ../refined-set-2016/2pyi/2pyi_pocket.pdb
REMARK  269 active torsions:
REMARK  status: ('A' for Active; 'I' for Inactive)
REMARK    1  A    between atoms: _1  and  _3
REMARK    2  A    between atoms: _3  and  _4
REMARK    3  A    between atoms: _3  and  _6
REMARK    4  A    between atoms: _6  and  _7
REMARK    5  A    between atoms: _12  and  _13
REMARK    6  A    between atoms: _15  and  _17
REMARK    7  A    between atoms: _17  and  _18
REMARK    8  A    between atoms: _17  and  _20
REMARK    9  A    between atoms: _20  and  _21
REMARK   10  A    between atoms: _21  and  _22
REMARK   11  A    between atoms: _25  and  _27
REMARK   12  A    between atoms: _27  and  _28
REMARK   13  A    between atoms: _27  and  _30
REMARK   14  A    between atoms: _30  and  _31
REMARK   15  A    between atoms: _36  and  _38
REMARK   16  A    between atoms: _38  and  _39
REMARK   17  A    between atoms: _41  and  _43
REMARK   18  A    between atoms: _43  and  _44
REMARK   19  A    between atoms: _46  and  _48
REMARK   20  A    between atoms: _48  and  _49
REMARK   21  A    between atoms: _48  and  _51
REMARK   22  A    between atoms: _51  and  _52
REMARK   23  A    between atoms: _55  and  _57
REMARK   24  A    between atoms: _57  and  _58
REMARK   25  A    between atoms: _60  and  _62
REMARK   26  A    between atoms: _62  and  _63
REMARK   27  A    between atoms: _62  and  _65
REMARK   28  A    between atoms: _65  and  _66
REMARK   29  A    between atoms: _66  and  _67
REMARK   30  A    between atoms: _67  and  _68
REMARK   31  A    between atoms: _77  and  _79
REMARK   32  A    between atoms: _79  and  _80
REMARK   33  A    between atoms: _79  and  _82
REMARK   34  A    between atoms: _82  and  _83
REMARK   35  A    between atoms: _86  and  _88
REMARK   36  A    between atoms: _88  and  _89
REMARK   37  A    between atoms: _92  and  _94
REMARK   38  A    between atoms: _94  and  _95
REMARK   39  A    between atoms: _94  and  _97
REMARK   40  A    between atoms: _97  and  _98
REMARK   41  A    between atoms: _104  and  _106
REMARK   42  A    between atoms: _106  and  _107
REMARK   43  A    between atoms: _106  and  _109
REMARK   44  A    between atoms: _109  and  _110
REMARK   45  A    between atoms: _115  and  _116
REMARK   46  A    between atoms: _119  and  _120
REMARK   47  A    between atoms: _125  and  _127
REMARK   48  A    between atoms: _127  and  _128
REMARK   49  A    between atoms: _127  and  _130
REMARK   50  A    between atoms: _130  and  _131
REMARK   51  A    between atoms: _136  and  _138
REMARK   52  A    between atoms: _138  and  _139
REMARK   53  A    between atoms: _138  and  _141
REMARK   54  A    between atoms: _141  and  _142
REMARK   55  A    between atoms: _145  and  _147
REMARK   56  A    between atoms: _147  and  _148
REMARK   57  A    between atoms: _147  and  _150
REMARK   58  A    between atoms: _150  and  _151
REMARK   59  A    between atoms: _156  and  _158
REMARK   60  A    between atoms: _158  and  _159
REMARK   61  A    between atoms: _158  and  _161
REMARK   62  A    between atoms: _161  and  _162
REMARK   63  A    between atoms: _168  and  _170
REMARK   64  A    between atoms: _170  and  _171
REMARK   65  A    between atoms: _170  and  _173
REMARK   66  A    between atoms: _173  and  _174
REMARK   67  A    between atoms: _180  and  _182
REMARK   68  A    between atoms: _182  and  _183
REMARK   69  A    between atoms: _182  and  _185
REMARK   70  A    between atoms: _185  and  _186
REMARK   71  A    between atoms: _186  and  _187
REMARK   72  A    between atoms: _190  and  _192
REMARK   73  A    between atoms: _192  and  _193
REMARK   74  A    between atoms: _195  and  _197
REMARK   75  A    between atoms: _197  and  _198
REMARK   76  A    between atoms: _197  and  _200
REMARK   77  A    between atoms: _200  and  _201
REMARK   78  A    between atoms: _201  and  _202
REMARK   79  A    between atoms: _202  and  _203
REMARK   80  A    between atoms: _203  and  _204
REMARK   81  A    between atoms: _208  and  _210
REMARK   82  A    between atoms: _210  and  _211
REMARK   83  A    between atoms: _210  and  _213
REMARK   84  A    between atoms: _213  and  _214
REMARK   85  A    between atoms: _214  and  _215
REMARK   86  A    between atoms: _215  and  _216
REMARK   87  A    between atoms: _225  and  _227
REMARK   88  A    between atoms: _227  and  _228
REMARK   89  A    between atoms: _227  and  _230
REMARK   90  A    between atoms: _230  and  _231
REMARK   91  A    between atoms: _231  and  _232
REMARK   92  A    between atoms: _235  and  _237
REMARK   93  A    between atoms: _237  and  _238
REMARK   94  A    between atoms: _237  and  _240
REMARK   95  A    between atoms: _240  and  _241
REMARK   96  A    between atoms: _246  and  _248
REMARK   97  A    between atoms: _248  and  _249
REMARK   98  A    between atoms: _248  and  _251
REMARK   99  A    between atoms: _251  and  _252
REMARK  100  A    between atoms: _255  and  _257
REMARK  101  A    between atoms: _257  and  _258
REMARK  102  A    between atoms: _257  and  _260
REMARK  103  A    between atoms: _260  and  _261
REMARK  104  A    between atoms: _264  and  _266
REMARK  105  A    between atoms: _266  and  _267
REMARK  106  A    between atoms: _266  and  _269
REMARK  107  A    between atoms: _269  and  _270
REMARK  108  A    between atoms: _275  and  _277
REMARK  109  A    between atoms: _277  and  _278
REMARK  110  A    between atoms: _277  and  _280
REMARK  111  A    between atoms: _280  and  _281
REMARK  112  A    between atoms: _284  and  _286
REMARK  113  A    between atoms: _286  and  _287
REMARK  114  A    between atoms: _286  and  _289
REMARK  115  A    between atoms: _289  and  _290
REMARK  116  A    between atoms: _295  and  _297
REMARK  117  A    between atoms: _297  and  _298
REMARK  118  A    between atoms: _297  and  _300
REMARK  119  A    between atoms: _300  and  _301
REMARK  120  A    between atoms: _306  and  _308
REMARK  121  A    between atoms: _308  and  _309
REMARK  122  A    between atoms: _308  and  _311
REMARK  123  A    between atoms: _311  and  _312
REMARK  124  A    between atoms: _315  and  _317
REMARK  125  A    between atoms: _317  and  _318
REMARK  126  A    between atoms: _317  and  _320
REMARK  127  A    between atoms: _323  and  _325
REMARK  128  A    between atoms: _325  and  _326
REMARK  129  A    between atoms: _325  and  _328
REMARK  130  A    between atoms: _328  and  _329
REMARK  131  A    between atoms: _333  and  _334
REMARK  132  A    between atoms: _339  and  _341
REMARK  133  A    between atoms: _341  and  _342
REMARK  134  A    between atoms: _341  and  _344
REMARK  135  A    between atoms: _344  and  _345
REMARK  136  A    between atoms: _345  and  _346
REMARK  137  A    between atoms: _349  and  _351
REMARK  138  A    between atoms: _351  and  _352
REMARK  139  A    between atoms: _355  and  _357
REMARK  140  A    between atoms: _357  and  _358
REMARK  141  A    between atoms: _357  and  _360
REMARK  142  A    between atoms: _360  and  _361
REMARK  143  A    between atoms: _364  and  _366
REMARK  144  A    between atoms: _366  and  _367
REMARK  145  A    between atoms: _366  and  _369
REMARK  146  A    between atoms: _369  and  _370
REMARK  147  A    between atoms: _370  and  _371
REMARK  148  A    between atoms: _374  and  _376
REMARK  149  A    between atoms: _376  and  _377
REMARK  150  A    between atoms: _376  and  _379
REMARK  151  A    between atoms: _379  and  _380
REMARK  152  A    between atoms: _385  and  _387
REMARK  153  A    between atoms: _387  and  _388
REMARK  154  A    between atoms: _390  and  _392
REMARK  155  A    between atoms: _392  and  _393
REMARK  156  A    between atoms: _392  and  _395
REMARK  157  A    between atoms: _398  and  _400
REMARK  158  A    between atoms: _400  and  _401
REMARK  159  A    between atoms: _404  and  _406
REMARK  160  A    between atoms: _406  and  _407
REMARK  161  A    between atoms: _406  and  _409
REMARK  162  A    between atoms: _409  and  _410
REMARK  163  A    between atoms: _415  and  _417
REMARK  164  A    between atoms: _417  and  _418
REMARK  165  A    between atoms: _417  and  _420
REMARK  166  A    between atoms: _420  and  _421
REMARK  167  A    between atoms: _421  and  _422
REMARK  168  A    between atoms: _422  and  _423
REMARK  169  A    between atoms: _423  and  _424
REMARK  170  A    between atoms: _428  and  _430
REMARK  171  A    between atoms: _430  and  _431
REMARK  172  A    between atoms: _430  and  _433
REMARK  173  A    between atoms: _433  and  _434
REMARK  174  A    between atoms: _437  and  _439
REMARK  175  A    between atoms: _439  and  _440
REMARK  176  A    between atoms: _439  and  _442
REMARK  177  A    between atoms: _442  and  _443
REMARK  178  A    between atoms: _448  and  _450
REMARK  179  A    between atoms: _450  and  _451
REMARK  180  A    between atoms: _453  and  _455
REMARK  181  A    between atoms: _455  and  _456
REMARK  182  A    between atoms: _455  and  _458
REMARK  183  A    between atoms: _458  and  _459
REMARK  184  A    between atoms: _459  and  _460
REMARK  185  A    between atoms: _460  and  _461
REMARK  186  A    between atoms: _461  and  _462
REMARK  187  A    between atoms: _466  and  _468
REMARK  188  A    between atoms: _468  and  _469
REMARK  189  A    between atoms: _468  and  _471
REMARK  190  A    between atoms: _471  and  _472
REMARK  191  A    between atoms: _472  and  _473
REMARK  192  A    between atoms: _473  and  _474
REMARK  193  A    between atoms: _483  and  _485
REMARK  194  A    between atoms: _485  and  _486
REMARK  195  A    between atoms: _485  and  _488
REMARK  196  A    between atoms: _488  and  _489
REMARK  197  A    between atoms: _494  and  _496
REMARK  198  A    between atoms: _496  and  _497
REMARK  199  A    between atoms: _496  and  _499
REMARK  200  A    between atoms: _499  and  _500
REMARK  201  A    between atoms: _505  and  _506
REMARK  202  A    between atoms: _508  and  _510
REMARK  203  A    between atoms: _510  and  _511
REMARK  204  A    between atoms: _510  and  _513
REMARK  205  A    between atoms: _513  and  _514
REMARK  206  A    between atoms: _514  and  _515
REMARK  207  A    between atoms: _515  and  _516
REMARK  208  A    between atoms: _516  and  _517
REMARK  209  A    between atoms: _521  and  _523
REMARK  210  A    between atoms: _523  and  _524
REMARK  211  A    between atoms: _523  and  _526
REMARK  212  A    between atoms: _526  and  _527
REMARK  213  A    between atoms: _529  and  _531
REMARK  214  A    between atoms: _531  and  _532
REMARK  215  A    between atoms: _531  and  _534
REMARK  216  A    between atoms: _534  and  _535
REMARK  217  A    between atoms: _538  and  _540
REMARK  218  A    between atoms: _540  and  _541
REMARK  219  A    between atoms: _540  and  _543
REMARK  220  A    between atoms: _543  and  _544
REMARK  221  A    between atoms: _544  and  _545
REMARK  222  A    between atoms: _548  and  _550
REMARK  223  A    between atoms: _550  and  _551
REMARK  224  A    between atoms: _554  and  _556
REMARK  225  A    between atoms: _556  and  _557
REMARK  226  A    between atoms: _556  and  _559
REMARK  227  A    between atoms: _559  and  _560
REMARK  228  A    between atoms: _562  and  _564
REMARK  229  A    between atoms: _564  and  _565
REMARK  230  A    between atoms: _567  and  _569
REMARK  231  A    between atoms: _569  and  _570
REMARK  232  A    between atoms: _569  and  _572
REMARK  233  A    between atoms: _572  and  _573
REMARK  234  A    between atoms: _576  and  _578
REMARK  235  A    between atoms: _578  and  _579
REMARK  236  A    between atoms: _581  and  _583
REMARK  237  A    between atoms: _583  and  _584
REMARK  238  A    between atoms: _583  and  _586
REMARK  239  A    between atoms: _586  and  _587
REMARK  240  A    between atoms: _592  and  _594
REMARK  241  A    between atoms: _594  and  _595
REMARK  242  A    between atoms: _594  and  _597
REMARK  243  A    between atoms: _597  and  _598
REMARK  244  A    between atoms: _598  and  _599
REMARK  245  A    between atoms: _606  and  _607
REMARK  246  A    between atoms: _607  and  _623
REMARK  247  A    between atoms: _608  and  _610
REMARK  248  A    between atoms: _610  and  _611
REMARK  249  A    between atoms: _611  and  _612
REMARK  250  A    between atoms: _616  and  _618
REMARK  251  A    between atoms: _618  and  _619
REMARK  252  A    between atoms: _618  and  _626
REMARK  253  A    between atoms: _619  and  _620
REMARK  254  A    between atoms: _620  and  _621
REMARK  255  A    between atoms: _621  and  _622
REMARK  256  A    between atoms: _622  and  _623
REMARK  257  A    between atoms: _628  and  _630
REMARK  258  A    between atoms: _630  and  _631
REMARK  259  A    between atoms: _630  and  _633
REMARK  260  A    between atoms: _633  and  _634
REMARK  261  A    between atoms: _637  and  _639
REMARK  262  A    between atoms: _639  and  _640
REMARK  263  A    between atoms: _642  and  _644
REMARK  264  A    between atoms: _644  and  _645
REMARK  265  A    between atoms: _648  and  _650
REMARK  266  A    between atoms: _650  and  _651
REMARK  267  A    between atoms: _650  and  _653
REMARK  268  A    between atoms: _653  and  _654
REMARK  269  A    between atoms: _659  and  _660
REMARK                            x       y       z     vdW  Elec       q    Type
REMARK                         _______ _______ _______ _____ _____    ______ ____
ROOT
ATOM      1  O   HOH     1      40.542  25.710  36.779  0.00  0.00    +0.000 OA
ENDROOT
TORSDOF 0
REMARK  Name = ../refined-set-2016/2pyi/2pyi_pocket.pdb
REMARK  269 active torsions:
REMARK  status: ('A' for Active; 'I' for Inactive)
REMARK    1  A    between atoms: _1  and  _3
REMARK    2  A    between atoms: _3  and  _4
REMARK    3  A    between atoms: _3  and  _6
REMARK    4  A    between atoms: _6  and  _7
REMARK    5  A    between atoms: _12  and  _13
REMARK    6  A    between atoms: _15  and  _17
REMARK    7  A    between atoms: _17  and  _18
REMARK    8  A    between atoms: _17  and  _20
REMARK    9  A    between atoms: _20  and  _21
REMARK   10  A    between atoms: _21  and  _22
REMARK   11  A    between atoms: _25  and  _27
REMARK   12  A    between atoms: _27  and  _28
REMARK   13  A    between atoms: _27  and  _30
REMARK   14  A    between atoms: _30  and  _31
REMARK   15  A    between atoms: _36  and  _38
REMARK   16  A    between atoms: _38  and  _39
REMARK   17  A    between atoms: _41  and  _43
REMARK   18  A    between atoms: _43  and  _44
REMARK   19  A    between atoms: _46  and  _48
REMARK   20  A    between atoms: _48  and  _49
REMARK   21  A    between atoms: _48  and  _51
REMARK   22  A    between atoms: _51  and  _52
REMARK   23  A    between atoms: _55  and  _57
REMARK   24  A    between atoms: _57  and  _58
REMARK   25  A    between atoms: _60  and  _62
REMARK   26  A    between atoms: _62  and  _63
REMARK   27  A    between atoms: _62  and  _65
REMARK   28  A    between atoms: _65  and  _66
REMARK   29  A    between atoms: _66  and  _67
REMARK   30  A    between atoms: _67  and  _68
REMARK   31  A    between atoms: _77  and  _79
REMARK   32  A    between atoms: _79  and  _80
REMARK   33  A    between atoms: _79  and  _82
REMARK   34  A    between atoms: _82  and  _83
REMARK   35  A    between atoms: _86  and  _88
REMARK   36  A    between atoms: _88  and  _89
REMARK   37  A    between atoms: _92  and  _94
REMARK   38  A    between atoms: _94  and  _95
REMARK   39  A    between atoms: _94  and  _97
REMARK   40  A    between atoms: _97  and  _98
REMARK   41  A    between atoms: _104  and  _106
REMARK   42  A    between atoms: _106  and  _107
REMARK   43  A    between atoms: _106  and  _109
REMARK   44  A    between atoms: _109  and  _110
REMARK   45  A    between atoms: _115  and  _116
REMARK   46  A    between atoms: _119  and  _120
REMARK   47  A    between atoms: _125  and  _127
REMARK   48  A    between atoms: _127  and  _128
REMARK   49  A    between atoms: _127  and  _130
REMARK   50  A    between atoms: _130  and  _131
REMARK   51  A    between atoms: _136  and  _138
REMARK   52  A    between atoms: _138  and  _139
REMARK   53  A    between atoms: _138  and  _141
REMARK   54  A    between atoms: _141  and  _142
REMARK   55  A    between atoms: _145  and  _147
REMARK   56  A    between atoms: _147  and  _148
REMARK   57  A    between atoms: _147  and  _150
REMARK   58  A    between atoms: _150  and  _151
REMARK   59  A    between atoms: _156  and  _158
REMARK   60  A    between atoms: _158  and  _159
REMARK   61  A    between atoms: _158  and  _161
REMARK   62  A    between atoms: _161  and  _162
REMARK   63  A    between atoms: _168  and  _170
REMARK   64  A    between atoms: _170  and  _171
REMARK   65  A    between atoms: _170  and  _173
REMARK   66  A    between atoms: _173  and  _174
REMARK   67  A    between atoms: _180  and  _182
REMARK   68  A    between atoms: _182  and  _183
REMARK   69  A    between atoms: _182  and  _185
REMARK   70  A    between atoms: _185  and  _186
REMARK   71  A    between atoms: _186  and  _187
REMARK   72  A    between atoms: _190  and  _192
REMARK   73  A    between atoms: _192  and  _193
REMARK   74  A    between atoms: _195  and  _197
REMARK   75  A    between atoms: _197  and  _198
REMARK   76  A    between atoms: _197  and  _200
REMARK   77  A    between atoms: _200  and  _201
REMARK   78  A    between atoms: _201  and  _202
REMARK   79  A    between atoms: _202  and  _203
REMARK   80  A    between atoms: _203  and  _204
REMARK   81  A    between atoms: _208  and  _210
REMARK   82  A    between atoms: _210  and  _211
REMARK   83  A    between atoms: _210  and  _213
REMARK   84  A    between atoms: _213  and  _214
REMARK   85  A    between atoms: _214  and  _215
REMARK   86  A    between atoms: _215  and  _216
REMARK   87  A    between atoms: _225  and  _227
REMARK   88  A    between atoms: _227  and  _228
REMARK   89  A    between atoms: _227  and  _230
REMARK   90  A    between atoms: _230  and  _231
REMARK   91  A    between atoms: _231  and  _232
REMARK   92  A    between atoms: _235  and  _237
REMARK   93  A    between atoms: _237  and  _238
REMARK   94  A    between atoms: _237  and  _240
REMARK   95  A    between atoms: _240  and  _241
REMARK   96  A    between atoms: _246  and  _248
REMARK   97  A    between atoms: _248  and  _249
REMARK   98  A    between atoms: _248  and  _251
REMARK   99  A    between atoms: _251  and  _252
REMARK  100  A    between atoms: _255  and  _257
REMARK  101  A    between atoms: _257  and  _258
REMARK  102  A    between atoms: _257  and  _260
REMARK  103  A    between atoms: _260  and  _261
REMARK  104  A    between atoms: _264  and  _266
REMARK  105  A    between atoms: _266  and  _267
REMARK  106  A    between atoms: _266  and  _269
REMARK  107  A    between atoms: _269  and  _270
REMARK  108  A    between atoms: _275  and  _277
REMARK  109  A    between atoms: _277  and  _278
REMARK  110  A    between atoms: _277  and  _280
REMARK  111  A    between atoms: _280  and  _281
REMARK  112  A    between atoms: _284  and  _286
REMARK  113  A    between atoms: _286  and  _287
REMARK  114  A    between atoms: _286  and  _289
REMARK  115  A    between atoms: _289  and  _290
REMARK  116  A    between atoms: _295  and  _297
REMARK  117  A    between atoms: _297  and  _298
REMARK  118  A    between atoms: _297  and  _300
REMARK  119  A    between atoms: _300  and  _301
REMARK  120  A    between atoms: _306  and  _308
REMARK  121  A    between atoms: _308  and  _309
REMARK  122  A    between atoms: _308  and  _311
REMARK  123  A    between atoms: _311  and  _312
REMARK  124  A    between atoms: _315  and  _317
REMARK  125  A    between atoms: _317  and  _318
REMARK  126  A    between atoms: _317  and  _320
REMARK  127  A    between atoms: _323  and  _325
REMARK  128  A    between atoms: _325  and  _326
REMARK  129  A    between atoms: _325  and  _328
REMARK  130  A    between atoms: _328  and  _329
REMARK  131  A    between atoms: _333  and  _334
REMARK  132  A    between atoms: _339  and  _341
REMARK  133  A    between atoms: _341  and  _342
REMARK  134  A    between atoms: _341  and  _344
REMARK  135  A    between atoms: _344  and  _345
REMARK  136  A    between atoms: _345  and  _346
REMARK  137  A    between atoms: _349  and  _351
REMARK  138  A    between atoms: _351  and  _352
REMARK  139  A    between atoms: _355  and  _357
REMARK  140  A    between atoms: _357  and  _358
REMARK  141  A    between atoms: _357  and  _360
REMARK  142  A    between atoms: _360  and  _361
REMARK  143  A    between atoms: _364  and  _366
REMARK  144  A    between atoms: _366  and  _367
REMARK  145  A    between atoms: _366  and  _369
REMARK  146  A    between atoms: _369  and  _370
REMARK  147  A    between atoms: _370  and  _371
REMARK  148  A    between atoms: _374  and  _376
REMARK  149  A    between atoms: _376  and  _377
REMARK  150  A    between atoms: _376  and  _379
REMARK  151  A    between atoms: _379  and  _380
REMARK  152  A    between atoms: _385  and  _387
REMARK  153  A    between atoms: _387  and  _388
REMARK  154  A    between atoms: _390  and  _392
REMARK  155  A    between atoms: _392  and  _393
REMARK  156  A    between atoms: _392  and  _395
REMARK  157  A    between atoms: _398  and  _400
REMARK  158  A    between atoms: _400  and  _401
REMARK  159  A    between atoms: _404  and  _406
REMARK  160  A    between atoms: _406  and  _407
REMARK  161  A    between atoms: _406  and  _409
REMARK  162  A    between atoms: _409  and  _410
REMARK  163  A    between atoms: _415  and  _417
REMARK  164  A    between atoms: _417  and  _418
REMARK  165  A    between atoms: _417  and  _420
REMARK  166  A    between atoms: _420  and  _421
REMARK  167  A    between atoms: _421  and  _422
REMARK  168  A    between atoms: _422  and  _423
REMARK  169  A    between atoms: _423  and  _424
REMARK  170  A    between atoms: _428  and  _430
REMARK  171  A    between atoms: _430  and  _431
REMARK  172  A    between atoms: _430  and  _433
REMARK  173  A    between atoms: _433  and  _434
REMARK  174  A    between atoms: _437  and  _439
REMARK  175  A    between atoms: _439  and  _440
REMARK  176  A    between atoms: _439  and  _442
REMARK  177  A    between atoms: _442  and  _443
REMARK  178  A    between atoms: _448  and  _450
REMARK  179  A    between atoms: _450  and  _451
REMARK  180  A    between atoms: _453  and  _455
REMARK  181  A    between atoms: _455  and  _456
REMARK  182  A    between atoms: _455  and  _458
REMARK  183  A    between atoms: _458  and  _459
REMARK  184  A    between atoms: _459  and  _460
REMARK  185  A    between atoms: _460  and  _461
REMARK  186  A    between atoms: _461  and  _462
REMARK  187  A    between atoms: _466  and  _468
REMARK  188  A    between atoms: _468  and  _469
REMARK  189  A    between atoms: _468  and  _471
REMARK  190  A    between atoms: _471  and  _472
REMARK  191  A    between atoms: _472  and  _473
REMARK  192  A    between atoms: _473  and  _474
REMARK  193  A    between atoms: _483  and  _485
REMARK  194  A    between atoms: _485  and  _486
REMARK  195  A    between atoms: _485  and  _488
REMARK  196  A    between atoms: _488  and  _489
REMARK  197  A    between atoms: _494  and  _496
REMARK  198  A    between atoms: _496  and  _497
REMARK  199  A    between atoms: _496  and  _499
REMARK  200  A    between atoms: _499  and  _500
REMARK  201  A    between atoms: _505  and  _506
REMARK  202  A    between atoms: _508  and  _510
REMARK  203  A    between atoms: _510  and  _511
REMARK  204  A    between atoms: _510  and  _513
REMARK  205  A    between atoms: _513  and  _514
REMARK  206  A    between atoms: _514  and  _515
REMARK  207  A    between atoms: _515  and  _516
REMARK  208  A    between atoms: _516  and  _517
REMARK  209  A    between atoms: _521  and  _523
REMARK  210  A    between atoms: _523  and  _524
REMARK  211  A    between atoms: _523  and  _526
REMARK  212  A    between atoms: _526  and  _527
REMARK  213  A    between atoms: _529  and  _531
REMARK  214  A    between atoms: _531  and  _532
REMARK  215  A    between atoms: _531  and  _534
REMARK  216  A    between atoms: _534  and  _535
REMARK  217  A    between atoms: _538  and  _540
REMARK  218  A    between atoms: _540  and  _541
REMARK  219  A    between atoms: _540  and  _543
REMARK  220  A    between atoms: _543  and  _544
REMARK  221  A    between atoms: _544  and  _545
REMARK  222  A    between atoms: _548  and  _550
REMARK  223  A    between atoms: _550  and  _551
REMARK  224  A    between atoms: _554  and  _556
REMARK  225  A    between atoms: _556  and  _557
REMARK  226  A    between atoms: _556  and  _559
REMARK  227  A    between atoms: _559  and  _560
REMARK  228  A    between atoms: _562  and  _564
REMARK  229  A    between atoms: _564  and  _565
REMARK  230  A    between atoms: _567  and  _569
REMARK  231  A    between atoms: _569  and  _570
REMARK  232  A    between atoms: _569  and  _572
REMARK  233  A    between atoms: _572  and  _573
REMARK  234  A    between atoms: _576  and  _578
REMARK  235  A    between atoms: _578  and  _579
REMARK  236  A    between atoms: _581  and  _583
REMARK  237  A    between atoms: _583  and  _584
REMARK  238  A    between atoms: _583  and  _586
REMARK  239  A    between atoms: _586  and  _587
REMARK  240  A    between atoms: _592  and  _594
REMARK  241  A    between atoms: _594  and  _595
REMARK  242  A    between atoms: _594  and  _597
REMARK  243  A    between atoms: _597  and  _598
REMARK  244  A    between atoms: _598  and  _599
REMARK  245  A    between atoms: _606  and  _607
REMARK  246  A    between atoms: _607  and  _623
REMARK  247  A    between atoms: _608  and  _610
REMARK  248  A    between atoms: _610  and  _611
REMARK  249  A    between atoms: _611  and  _612
REMARK  250  A    between atoms: _616  and  _618
REMARK  251  A    between atoms: _618  and  _619
REMARK  252  A    between atoms: _618  and  _626
REMARK  253  A    between atoms: _619  and  _620
REMARK  254  A    between atoms: _620  and  _621
REMARK  255  A    between atoms: _621  and  _622
REMARK  256  A    between atoms: _622  and  _623
REMARK  257  A    between atoms: _628  and  _630
REMARK  258  A    between atoms: _630  and  _631
REMARK  259  A    between atoms: _630  and  _633
REMARK  260  A    between atoms: _633  and  _634
REMARK  261  A    between atoms: _637  and  _639
REMARK  262  A    between atoms: _639  and  _640
REMARK  263  A    between atoms: _642  and  _644
REMARK  264  A    between atoms: _644  and  _645
REMARK  265  A    between atoms: _648  and  _650
REMARK  266  A    between atoms: _650  and  _651
REMARK  267  A    between atoms: _650  and  _653
REMARK  268  A    between atoms: _653  and  _654
REMARK  269  A    between atoms: _659  and  _660
REMARK                            x       y       z     vdW  Elec       q    Type
REMARK                         _______ _______ _______ _____ _____    ______ ____
ROOT
ATOM      1  O   HOH     1      34.232  33.122  30.508  0.00  0.00    +0.000 OA
ENDROOT
TORSDOF 0
REMARK  Name = ../refined-set-2016/2pyi/2pyi_pocket.pdb
REMARK  269 active torsions:
REMARK  status: ('A' for Active; 'I' for Inactive)
REMARK    1  A    between atoms: _1  and  _3
REMARK    2  A    between atoms: _3  and  _4
REMARK    3  A    between atoms: _3  and  _6
REMARK    4  A    between atoms: _6  and  _7
REMARK    5  A    between atoms: _12  and  _13
REMARK    6  A    between atoms: _15  and  _17
REMARK    7  A    between atoms: _17  and  _18
REMARK    8  A    between atoms: _17  and  _20
REMARK    9  A    between atoms: _20  and  _21
REMARK   10  A    between atoms: _21  and  _22
REMARK   11  A    between atoms: _25  and  _27
REMARK   12  A    between atoms: _27  and  _28
REMARK   13  A    between atoms: _27  and  _30
REMARK   14  A    between atoms: _30  and  _31
REMARK   15  A    between atoms: _36  and  _38
REMARK   16  A    between atoms: _38  and  _39
REMARK   17  A    between atoms: _41  and  _43
REMARK   18  A    between atoms: _43  and  _44
REMARK   19  A    between atoms: _46  and  _48
REMARK   20  A    between atoms: _48  and  _49
REMARK   21  A    between atoms: _48  and  _51
REMARK   22  A    between atoms: _51  and  _52
REMARK   23  A    between atoms: _55  and  _57
REMARK   24  A    between atoms: _57  and  _58
REMARK   25  A    between atoms: _60  and  _62
REMARK   26  A    between atoms: _62  and  _63
REMARK   27  A    between atoms: _62  and  _65
REMARK   28  A    between atoms: _65  and  _66
REMARK   29  A    between atoms: _66  and  _67
REMARK   30  A    between atoms: _67  and  _68
REMARK   31  A    between atoms: _77  and  _79
REMARK   32  A    between atoms: _79  and  _80
REMARK   33  A    between atoms: _79  and  _82
REMARK   34  A    between atoms: _82  and  _83
REMARK   35  A    between atoms: _86  and  _88
REMARK   36  A    between atoms: _88  and  _89
REMARK   37  A    between atoms: _92  and  _94
REMARK   38  A    between atoms: _94  and  _95
REMARK   39  A    between atoms: _94  and  _97
REMARK   40  A    between atoms: _97  and  _98
REMARK   41  A    between atoms: _104  and  _106
REMARK   42  A    between atoms: _106  and  _107
REMARK   43  A    between atoms: _106  and  _109
REMARK   44  A    between atoms: _109  and  _110
REMARK   45  A    between atoms: _115  and  _116
REMARK   46  A    between atoms: _119  and  _120
REMARK   47  A    between atoms: _125  and  _127
REMARK   48  A    between atoms: _127  and  _128
REMARK   49  A    between atoms: _127  and  _130
REMARK   50  A    between atoms: _130  and  _131
REMARK   51  A    between atoms: _136  and  _138
REMARK   52  A    between atoms: _138  and  _139
REMARK   53  A    between atoms: _138  and  _141
REMARK   54  A    between atoms: _141  and  _142
REMARK   55  A    between atoms: _145  and  _147
REMARK   56  A    between atoms: _147  and  _148
REMARK   57  A    between atoms: _147  and  _150
REMARK   58  A    between atoms: _150  and  _151
REMARK   59  A    between atoms: _156  and  _158
REMARK   60  A    between atoms: _158  and  _159
REMARK   61  A    between atoms: _158  and  _161
REMARK   62  A    between atoms: _161  and  _162
REMARK   63  A    between atoms: _168  and  _170
REMARK   64  A    between atoms: _170  and  _171
REMARK   65  A    between atoms: _170  and  _173
REMARK   66  A    between atoms: _173  and  _174
REMARK   67  A    between atoms: _180  and  _182
REMARK   68  A    between atoms: _182  and  _183
REMARK   69  A    between atoms: _182  and  _185
REMARK   70  A    between atoms: _185  and  _186
REMARK   71  A    between atoms: _186  and  _187
REMARK   72  A    between atoms: _190  and  _192
REMARK   73  A    between atoms: _192  and  _193
REMARK   74  A    between atoms: _195  and  _197
REMARK   75  A    between atoms: _197  and  _198
REMARK   76  A    between atoms: _197  and  _200
REMARK   77  A    between atoms: _200  and  _201
REMARK   78  A    between atoms: _201  and  _202
REMARK   79  A    between atoms: _202  and  _203
REMARK   80  A    between atoms: _203  and  _204
REMARK   81  A    between atoms: _208  and  _210
REMARK   82  A    between atoms: _210  and  _211
REMARK   83  A    between atoms: _210  and  _213
REMARK   84  A    between atoms: _213  and  _214
REMARK   85  A    between atoms: _214  and  _215
REMARK   86  A    between atoms: _215  and  _216
REMARK   87  A    between atoms: _225  and  _227
REMARK   88  A    between atoms: _227  and  _228
REMARK   89  A    between atoms: _227  and  _230
REMARK   90  A    between atoms: _230  and  _231
REMARK   91  A    between atoms: _231  and  _232
REMARK   92  A    between atoms: _235  and  _237
REMARK   93  A    between atoms: _237  and  _238
REMARK   94  A    between atoms: _237  and  _240
REMARK   95  A    between atoms: _240  and  _241
REMARK   96  A    between atoms: _246  and  _248
REMARK   97  A    between atoms: _248  and  _249
REMARK   98  A    between atoms: _248  and  _251
REMARK   99  A    between atoms: _251  and  _252
REMARK  100  A    between atoms: _255  and  _257
REMARK  101  A    between atoms: _257  and  _258
REMARK  102  A    between atoms: _257  and  _260
REMARK  103  A    between atoms: _260  and  _261
REMARK  104  A    between atoms: _264  and  _266
REMARK  105  A    between atoms: _266  and  _267
REMARK  106  A    between atoms: _266  and  _269
REMARK  107  A    between atoms: _269  and  _270
REMARK  108  A    between atoms: _275  and  _277
REMARK  109  A    between atoms: _277  and  _278
REMARK  110  A    between atoms: _277  and  _280
REMARK  111  A    between atoms: _280  and  _281
REMARK  112  A    between atoms: _284  and  _286
REMARK  113  A    between atoms: _286  and  _287
REMARK  114  A    between atoms: _286  and  _289
REMARK  115  A    between atoms: _289  and  _290
REMARK  116  A    between atoms: _295  and  _297
REMARK  117  A    between atoms: _297  and  _298
REMARK  118  A    between atoms: _297  and  _300
REMARK  119  A    between atoms: _300  and  _301
REMARK  120  A    between atoms: _306  and  _308
REMARK  121  A    between atoms: _308  and  _309
REMARK  122  A    between atoms: _308  and  _311
REMARK  123  A    between atoms: _311  and  _312
REMARK  124  A    between atoms: _315  and  _317
REMARK  125  A    between atoms: _317  and  _318
REMARK  126  A    between atoms: _317  and  _320
REMARK  127  A    between atoms: _323  and  _325
REMARK  128  A    between atoms: _325  and  _326
REMARK  129  A    between atoms: _325  and  _328
REMARK  130  A    between atoms: _328  and  _329
REMARK  131  A    between atoms: _333  and  _334
REMARK  132  A    between atoms: _339  and  _341
REMARK  133  A    between atoms: _341  and  _342
REMARK  134  A    between atoms: _341  and  _344
REMARK  135  A    between atoms: _344  and  _345
REMARK  136  A    between atoms: _345  and  _346
REMARK  137  A    between atoms: _349  and  _351
REMARK  138  A    between atoms: _351  and  _352
REMARK  139  A    between atoms: _355  and  _357
REMARK  140  A    between atoms: _357  and  _358
REMARK  141  A    between atoms: _357  and  _360
REMARK  142  A    between atoms: _360  and  _361
REMARK  143  A    between atoms: _364  and  _366
REMARK  144  A    between atoms: _366  and  _367
REMARK  145  A    between atoms: _366  and  _369
REMARK  146  A    between atoms: _369  and  _370
REMARK  147  A    between atoms: _370  and  _371
REMARK  148  A    between atoms: _374  and  _376
REMARK  149  A    between atoms: _376  and  _377
REMARK  150  A    between atoms: _376  and  _379
REMARK  151  A    between atoms: _379  and  _380
REMARK  152  A    between atoms: _385  and  _387
REMARK  153  A    between atoms: _387  and  _388
REMARK  154  A    between atoms: _390  and  _392
REMARK  155  A    between atoms: _392  and  _393
REMARK  156  A    between atoms: _392  and  _395
REMARK  157  A    between atoms: _398  and  _400
REMARK  158  A    between atoms: _400  and  _401
REMARK  159  A    between atoms: _404  and  _406
REMARK  160  A    between atoms: _406  and  _407
REMARK  161  A    between atoms: _406  and  _409
REMARK  162  A    between atoms: _409  and  _410
REMARK  163  A    between atoms: _415  and  _417
REMARK  164  A    between atoms: _417  and  _418
REMARK  165  A    between atoms: _417  and  _420
REMARK  166  A    between atoms: _420  and  _421
REMARK  167  A    between atoms: _421  and  _422
REMARK  168  A    between atoms: _422  and  _423
REMARK  169  A    between atoms: _423  and  _424
REMARK  170  A    between atoms: _428  and  _430
REMARK  171  A    between atoms: _430  and  _431
REMARK  172  A    between atoms: _430  and  _433
REMARK  173  A    between atoms: _433  and  _434
REMARK  174  A    between atoms: _437  and  _439
REMARK  175  A    between atoms: _439  and  _440
REMARK  176  A    between atoms: _439  and  _442
REMARK  177  A    between atoms: _442  and  _443
REMARK  178  A    between atoms: _448  and  _450
REMARK  179  A    between atoms: _450  and  _451
REMARK  180  A    between atoms: _453  and  _455
REMARK  181  A    between atoms: _455  and  _456
REMARK  182  A    between atoms: _455  and  _458
REMARK  183  A    between atoms: _458  and  _459
REMARK  184  A    between atoms: _459  and  _460
REMARK  185  A    between atoms: _460  and  _461
REMARK  186  A    between atoms: _461  and  _462
REMARK  187  A    between atoms: _466  and  _468
REMARK  188  A    between atoms: _468  and  _469
REMARK  189  A    between atoms: _468  and  _471
REMARK  190  A    between atoms: _471  and  _472
REMARK  191  A    between atoms: _472  and  _473
REMARK  192  A    between atoms: _473  and  _474
REMARK  193  A    between atoms: _483  and  _485
REMARK  194  A    between atoms: _485  and  _486
REMARK  195  A    between atoms: _485  and  _488
REMARK  196  A    between atoms: _488  and  _489
REMARK  197  A    between atoms: _494  and  _496
REMARK  198  A    between atoms: _496  and  _497
REMARK  199  A    between atoms: _496  and  _499
REMARK  200  A    between atoms: _499  and  _500
REMARK  201  A    between atoms: _505  and  _506
REMARK  202  A    between atoms: _508  and  _510
REMARK  203  A    between atoms: _510  and  _511
REMARK  204  A    between atoms: _510  and  _513
REMARK  205  A    between atoms: _513  and  _514
REMARK  206  A    between atoms: _514  and  _515
REMARK  207  A    between atoms: _515  and  _516
REMARK  208  A    between atoms: _516  and  _517
REMARK  209  A    between atoms: _521  and  _523
REMARK  210  A    between atoms: _523  and  _524
REMARK  211  A    between atoms: _523  and  _526
REMARK  212  A    between atoms: _526  and  _527
REMARK  213  A    between atoms: _529  and  _531
REMARK  214  A    between atoms: _531  and  _532
REMARK  215  A    between atoms: _531  and  _534
REMARK  216  A    between atoms: _534  and  _535
REMARK  217  A    between atoms: _538  and  _540
REMARK  218  A    between atoms: _540  and  _541
REMARK  219  A    between atoms: _540  and  _543
REMARK  220  A    between atoms: _543  and  _544
REMARK  221  A    between atoms: _544  and  _545
REMARK  222  A    between atoms: _548  and  _550
REMARK  223  A    between atoms: _550  and  _551
REMARK  224  A    between atoms: _554  and  _556
REMARK  225  A    between atoms: _556  and  _557
REMARK  226  A    between atoms: _556  and  _559
REMARK  227  A    between atoms: _559  and  _560
REMARK  228  A    between atoms: _562  and  _564
REMARK  229  A    between atoms: _564  and  _565
REMARK  230  A    between atoms: _567  and  _569
REMARK  231  A    between atoms: _569  and  _570
REMARK  232  A    between atoms: _569  and  _572
REMARK  233  A    between atoms: _572  and  _573
REMARK  234  A    between atoms: _576  and  _578
REMARK  235  A    between atoms: _578  and  _579
REMARK  236  A    between atoms: _581  and  _583
REMARK  237  A    between atoms: _583  and  _584
REMARK  238  A    between atoms: _583  and  _586
REMARK  239  A    between atoms: _586  and  _587
REMARK  240  A    between atoms: _592  and  _594
REMARK  241  A    between atoms: _594  and  _595
REMARK  242  A    between atoms: _594  and  _597
REMARK  243  A    between atoms: _597  and  _598
REMARK  244  A    between atoms: _598  and  _599
REMARK  245  A    between atoms: _606  and  _607
REMARK  246  A    between atoms: _607  and  _623
REMARK  247  A    between atoms: _608  and  _610
REMARK  248  A    between atoms: _610  and  _611
REMARK  249  A    between atoms: _611  and  _612
REMARK  250  A    between atoms: _616  and  _618
REMARK  251  A    between atoms: _618  and  _619
REMARK  252  A    between atoms: _618  and  _626
REMARK  253  A    between atoms: _619  and  _620
REMARK  254  A    between atoms: _620  and  _621
REMARK  255  A    between atoms: _621  and  _622
REMARK  256  A    between atoms: _622  and  _623
REMARK  257  A    between atoms: _628  and  _630
REMARK  258  A    between atoms: _630  and  _631
REMARK  259  A    between atoms: _630  and  _633
REMARK  260  A    between atoms: _633  and  _634
REMARK  261  A    between atoms: _637  and  _639
REMARK  262  A    between atoms: _639  and  _640
REMARK  263  A    between atoms: _642  and  _644
REMARK  264  A    between atoms: _644  and  _645
REMARK  265  A    between atoms: _648  and  _650
REMARK  266  A    between atoms: _650  and  _651
REMARK  267  A    between atoms: _650  and  _653
REMARK  268  A    between atoms: _653  and  _654
REMARK  269  A    between atoms: _659  and  _660
REMARK                            x       y       z     vdW  Elec       q    Type
REMARK                         _______ _______ _______ _____ _____    ______ ____
ROOT
ATOM      1  O   HOH     1      40.458  29.152  38.170  0.00  0.00    +0.000 OA
ENDROOT
TORSDOF 0
REMARK  Name = ../refined-set-2016/2pyi/2pyi_pocket.pdb
REMARK  269 active torsions:
REMARK  status: ('A' for Active; 'I' for Inactive)
REMARK    1  A    between atoms: _1  and  _3
REMARK    2  A    between atoms: _3  and  _4
REMARK    3  A    between atoms: _3  and  _6
REMARK    4  A    between atoms: _6  and  _7
REMARK    5  A    between atoms: _12  and  _13
REMARK    6  A    between atoms: _15  and  _17
REMARK    7  A    between atoms: _17  and  _18
REMARK    8  A    between atoms: _17  and  _20
REMARK    9  A    between atoms: _20  and  _21
REMARK   10  A    between atoms: _21  and  _22
REMARK   11  A    between atoms: _25  and  _27
REMARK   12  A    between atoms: _27  and  _28
REMARK   13  A    between atoms: _27  and  _30
REMARK   14  A    between atoms: _30  and  _31
REMARK   15  A    between atoms: _36  and  _38
REMARK   16  A    between atoms: _38  and  _39
REMARK   17  A    between atoms: _41  and  _43
REMARK   18  A    between atoms: _43  and  _44
REMARK   19  A    between atoms: _46  and  _48
REMARK   20  A    between atoms: _48  and  _49
REMARK   21  A    between atoms: _48  and  _51
REMARK   22  A    between atoms: _51  and  _52
REMARK   23  A    between atoms: _55  and  _57
REMARK   24  A    between atoms: _57  and  _58
REMARK   25  A    between atoms: _60  and  _62
REMARK   26  A    between atoms: _62  and  _63
REMARK   27  A    between atoms: _62  and  _65
REMARK   28  A    between atoms: _65  and  _66
REMARK   29  A    between atoms: _66  and  _67
REMARK   30  A    between atoms: _67  and  _68
REMARK   31  A    between atoms: _77  and  _79
REMARK   32  A    between atoms: _79  and  _80
REMARK   33  A    between atoms: _79  and  _82
REMARK   34  A    between atoms: _82  and  _83
REMARK   35  A    between atoms: _86  and  _88
REMARK   36  A    between atoms: _88  and  _89
REMARK   37  A    between atoms: _92  and  _94
REMARK   38  A    between atoms: _94  and  _95
REMARK   39  A    between atoms: _94  and  _97
REMARK   40  A    between atoms: _97  and  _98
REMARK   41  A    between atoms: _104  and  _106
REMARK   42  A    between atoms: _106  and  _107
REMARK   43  A    between atoms: _106  and  _109
REMARK   44  A    between atoms: _109  and  _110
REMARK   45  A    between atoms: _115  and  _116
REMARK   46  A    between atoms: _119  and  _120
REMARK   47  A    between atoms: _125  and  _127
REMARK   48  A    between atoms: _127  and  _128
REMARK   49  A    between atoms: _127  and  _130
REMARK   50  A    between atoms: _130  and  _131
REMARK   51  A    between atoms: _136  and  _138
REMARK   52  A    between atoms: _138  and  _139
REMARK   53  A    between atoms: _138  and  _141
REMARK   54  A    between atoms: _141  and  _142
REMARK   55  A    between atoms: _145  and  _147
REMARK   56  A    between atoms: _147  and  _148
REMARK   57  A    between atoms: _147  and  _150
REMARK   58  A    between atoms: _150  and  _151
REMARK   59  A    between atoms: _156  and  _158
REMARK   60  A    between atoms: _158  and  _159
REMARK   61  A    between atoms: _158  and  _161
REMARK   62  A    between atoms: _161  and  _162
REMARK   63  A    between atoms: _168  and  _170
REMARK   64  A    between atoms: _170  and  _171
REMARK   65  A    between atoms: _170  and  _173
REMARK   66  A    between atoms: _173  and  _174
REMARK   67  A    between atoms: _180  and  _182
REMARK   68  A    between atoms: _182  and  _183
REMARK   69  A    between atoms: _182  and  _185
REMARK   70  A    between atoms: _185  and  _186
REMARK   71  A    between atoms: _186  and  _187
REMARK   72  A    between atoms: _190  and  _192
REMARK   73  A    between atoms: _192  and  _193
REMARK   74  A    between atoms: _195  and  _197
REMARK   75  A    between atoms: _197  and  _198
REMARK   76  A    between atoms: _197  and  _200
REMARK   77  A    between atoms: _200  and  _201
REMARK   78  A    between atoms: _201  and  _202
REMARK   79  A    between atoms: _202  and  _203
REMARK   80  A    between atoms: _203  and  _204
REMARK   81  A    between atoms: _208  and  _210
REMARK   82  A    between atoms: _210  and  _211
REMARK   83  A    between atoms: _210  and  _213
REMARK   84  A    between atoms: _213  and  _214
REMARK   85  A    between atoms: _214  and  _215
REMARK   86  A    between atoms: _215  and  _216
REMARK   87  A    between atoms: _225  and  _227
REMARK   88  A    between atoms: _227  and  _228
REMARK   89  A    between atoms: _227  and  _230
REMARK   90  A    between atoms: _230  and  _231
REMARK   91  A    between atoms: _231  and  _232
REMARK   92  A    between atoms: _235  and  _237
REMARK   93  A    between atoms: _237  and  _238
REMARK   94  A    between atoms: _237  and  _240
REMARK   95  A    between atoms: _240  and  _241
REMARK   96  A    between atoms: _246  and  _248
REMARK   97  A    between atoms: _248  and  _249
REMARK   98  A    between atoms: _248  and  _251
REMARK   99  A    between atoms: _251  and  _252
REMARK  100  A    between atoms: _255  and  _257
REMARK  101  A    between atoms: _257  and  _258
REMARK  102  A    between atoms: _257  and  _260
REMARK  103  A    between atoms: _260  and  _261
REMARK  104  A    between atoms: _264  and  _266
REMARK  105  A    between atoms: _266  and  _267
REMARK  106  A    between atoms: _266  and  _269
REMARK  107  A    between atoms: _269  and  _270
REMARK  108  A    between atoms: _275  and  _277
REMARK  109  A    between atoms: _277  and  _278
REMARK  110  A    between atoms: _277  and  _280
REMARK  111  A    between atoms: _280  and  _281
REMARK  112  A    between atoms: _284  and  _286
REMARK  113  A    between atoms: _286  and  _287
REMARK  114  A    between atoms: _286  and  _289
REMARK  115  A    between atoms: _289  and  _290
REMARK  116  A    between atoms: _295  and  _297
REMARK  117  A    between atoms: _297  and  _298
REMARK  118  A    between atoms: _297  and  _300
REMARK  119  A    between atoms: _300  and  _301
REMARK  120  A    between atoms: _306  and  _308
REMARK  121  A    between atoms: _308  and  _309
REMARK  122  A    between atoms: _308  and  _311
REMARK  123  A    between atoms: _311  and  _312
REMARK  124  A    between atoms: _315  and  _317
REMARK  125  A    between atoms: _317  and  _318
REMARK  126  A    between atoms: _317  and  _320
REMARK  127  A    between atoms: _323  and  _325
REMARK  128  A    between atoms: _325  and  _326
REMARK  129  A    between atoms: _325  and  _328
REMARK  130  A    between atoms: _328  and  _329
REMARK  131  A    between atoms: _333  and  _334
REMARK  132  A    between atoms: _339  and  _341
REMARK  133  A    between atoms: _341  and  _342
REMARK  134  A    between atoms: _341  and  _344
REMARK  135  A    between atoms: _344  and  _345
REMARK  136  A    between atoms: _345  and  _346
REMARK  137  A    between atoms: _349  and  _351
REMARK  138  A    between atoms: _351  and  _352
REMARK  139  A    between atoms: _355  and  _357
REMARK  140  A    between atoms: _357  and  _358
REMARK  141  A    between atoms: _357  and  _360
REMARK  142  A    between atoms: _360  and  _361
REMARK  143  A    between atoms: _364  and  _366
REMARK  144  A    between atoms: _366  and  _367
REMARK  145  A    between atoms: _366  and  _369
REMARK  146  A    between atoms: _369  and  _370
REMARK  147  A    between atoms: _370  and  _371
REMARK  148  A    between atoms: _374  and  _376
REMARK  149  A    between atoms: _376  and  _377
REMARK  150  A    between atoms: _376  and  _379
REMARK  151  A    between atoms: _379  and  _380
REMARK  152  A    between atoms: _385  and  _387
REMARK  153  A    between atoms: _387  and  _388
REMARK  154  A    between atoms: _390  and  _392
REMARK  155  A    between atoms: _392  and  _393
REMARK  156  A    between atoms: _392  and  _395
REMARK  157  A    between atoms: _398  and  _400
REMARK  158  A    between atoms: _400  and  _401
REMARK  159  A    between atoms: _404  and  _406
REMARK  160  A    between atoms: _406  and  _407
REMARK  161  A    between atoms: _406  and  _409
REMARK  162  A    between atoms: _409  and  _410
REMARK  163  A    between atoms: _415  and  _417
REMARK  164  A    between atoms: _417  and  _418
REMARK  165  A    between atoms: _417  and  _420
REMARK  166  A    between atoms: _420  and  _421
REMARK  167  A    between atoms: _421  and  _422
REMARK  168  A    between atoms: _422  and  _423
REMARK  169  A    between atoms: _423  and  _424
REMARK  170  A    between atoms: _428  and  _430
REMARK  171  A    between atoms: _430  and  _431
REMARK  172  A    between atoms: _430  and  _433
REMARK  173  A    between atoms: _433  and  _434
REMARK  174  A    between atoms: _437  and  _439
REMARK  175  A    between atoms: _439  and  _440
REMARK  176  A    between atoms: _439  and  _442
REMARK  177  A    between atoms: _442  and  _443
REMARK  178  A    between atoms: _448  and  _450
REMARK  179  A    between atoms: _450  and  _451
REMARK  180  A    between atoms: _453  and  _455
REMARK  181  A    between atoms: _455  and  _456
REMARK  182  A    between atoms: _455  and  _458
REMARK  183  A    between atoms: _458  and  _459
REMARK  184  A    between atoms: _459  and  _460
REMARK  185  A    between atoms: _460  and  _461
REMARK  186  A    between atoms: _461  and  _462
REMARK  187  A    between atoms: _466  and  _468
REMARK  188  A    between atoms: _468  and  _469
REMARK  189  A    between atoms: _468  and  _471
REMARK  190  A    between atoms: _471  and  _472
REMARK  191  A    between atoms: _472  and  _473
REMARK  192  A    between atoms: _473  and  _474
REMARK  193  A    between atoms: _483  and  _485
REMARK  194  A    between atoms: _485  and  _486
REMARK  195  A    between atoms: _485  and  _488
REMARK  196  A    between atoms: _488  and  _489
REMARK  197  A    between atoms: _494  and  _496
REMARK  198  A    between atoms: _496  and  _497
REMARK  199  A    between atoms: _496  and  _499
REMARK  200  A    between atoms: _499  and  _500
REMARK  201  A    between atoms: _505  and  _506
REMARK  202  A    between atoms: _508  and  _510
REMARK  203  A    between atoms: _510  and  _511
REMARK  204  A    between atoms: _510  and  _513
REMARK  205  A    between atoms: _513  and  _514
REMARK  206  A    between atoms: _514  and  _515
REMARK  207  A    between atoms: _515  and  _516
REMARK  208  A    between atoms: _516  and  _517
REMARK  209  A    between atoms: _521  and  _523
REMARK  210  A    between atoms: _523  and  _524
REMARK  211  A    between atoms: _523  and  _526
REMARK  212  A    between atoms: _526  and  _527
REMARK  213  A    between atoms: _529  and  _531
REMARK  214  A    between atoms: _531  and  _532
REMARK  215  A    between atoms: _531  and  _534
REMARK  216  A    between atoms: _534  and  _535
REMARK  217  A    between atoms: _538  and  _540
REMARK  218  A    between atoms: _540  and  _541
REMARK  219  A    between atoms: _540  and  _543
REMARK  220  A    between atoms: _543  and  _544
REMARK  221  A    between atoms: _544  and  _545
REMARK  222  A    between atoms: _548  and  _550
REMARK  223  A    between atoms: _550  and  _551
REMARK  224  A    between atoms: _554  and  _556
REMARK  225  A    between atoms: _556  and  _557
REMARK  226  A    between atoms: _556  and  _559
REMARK  227  A    between atoms: _559  and  _560
REMARK  228  A    between atoms: _562  and  _564
REMARK  229  A    between atoms: _564  and  _565
REMARK  230  A    between atoms: _567  and  _569
REMARK  231  A    between atoms: _569  and  _570
REMARK  232  A    between atoms: _569  and  _572
REMARK  233  A    between atoms: _572  and  _573
REMARK  234  A    between atoms: _576  and  _578
REMARK  235  A    between atoms: _578  and  _579
REMARK  236  A    between atoms: _581  and  _583
REMARK  237  A    between atoms: _583  and  _584
REMARK  238  A    between atoms: _583  and  _586
REMARK  239  A    between atoms: _586  and  _587
REMARK  240  A    between atoms: _592  and  _594
REMARK  241  A    between atoms: _594  and  _595
REMARK  242  A    between atoms: _594  and  _597
REMARK  243  A    between atoms: _597  and  _598
REMARK  244  A    between atoms: _598  and  _599
REMARK  245  A    between atoms: _606  and  _607
REMARK  246  A    between atoms: _607  and  _623
REMARK  247  A    between atoms: _608  and  _610
REMARK  248  A    between atoms: _610  and  _611
REMARK  249  A    between atoms: _611  and  _612
REMARK  250  A    between atoms: _616  and  _618
REMARK  251  A    between atoms: _618  and  _619
REMARK  252  A    between atoms: _618  and  _626
REMARK  253  A    between atoms: _619  and  _620
REMARK  254  A    between atoms: _620  and  _621
REMARK  255  A    between atoms: _621  and  _622
REMARK  256  A    between atoms: _622  and  _623
REMARK  257  A    between atoms: _628  and  _630
REMARK  258  A    between atoms: _630  and  _631
REMARK  259  A    between atoms: _630  and  _633
REMARK  260  A    between atoms: _633  and  _634
REMARK  261  A    between atoms: _637  and  _639
REMARK  262  A    between atoms: _639  and  _640
REMARK  263  A    between atoms: _642  and  _644
REMARK  264  A    between atoms: _644  and  _645
REMARK  265  A    between atoms: _648  and  _650
REMARK  266  A    between atoms: _650  and  _651
REMARK  267  A    between atoms: _650  and  _653
REMARK  268  A    between atoms: _653  and  _654
REMARK  269  A    between atoms: _659  and  _660
REMARK                            x       y       z     vdW  Elec       q    Type
REMARK                         _______ _______ _______ _____ _____    ______ ____
ROOT
ATOM      1  O   HOH     1      33.849  25.560  34.272  0.00  0.00    +0.000 OA
ENDROOT
TORSDOF 0
REMARK  Name = ../refined-set-2016/2pyi/2pyi_pocket.pdb
REMARK  269 active torsions:
REMARK  status: ('A' for Active; 'I' for Inactive)
REMARK    1  A    between atoms: _1  and  _3
REMARK    2  A    between atoms: _3  and  _4
REMARK    3  A    between atoms: _3  and  _6
REMARK    4  A    between atoms: _6  and  _7
REMARK    5  A    between atoms: _12  and  _13
REMARK    6  A    between atoms: _15  and  _17
REMARK    7  A    between atoms: _17  and  _18
REMARK    8  A    between atoms: _17  and  _20
REMARK    9  A    between atoms: _20  and  _21
REMARK   10  A    between atoms: _21  and  _22
REMARK   11  A    between atoms: _25  and  _27
REMARK   12  A    between atoms: _27  and  _28
REMARK   13  A    between atoms: _27  and  _30
REMARK   14  A    between atoms: _30  and  _31
REMARK   15  A    between atoms: _36  and  _38
REMARK   16  A    between atoms: _38  and  _39
REMARK   17  A    between atoms: _41  and  _43
REMARK   18  A    between atoms: _43  and  _44
REMARK   19  A    between atoms: _46  and  _48
REMARK   20  A    between atoms: _48  and  _49
REMARK   21  A    between atoms: _48  and  _51
REMARK   22  A    between atoms: _51  and  _52
REMARK   23  A    between atoms: _55  and  _57
REMARK   24  A    between atoms: _57  and  _58
REMARK   25  A    between atoms: _60  and  _62
REMARK   26  A    between atoms: _62  and  _63
REMARK   27  A    between atoms: _62  and  _65
REMARK   28  A    between atoms: _65  and  _66
REMARK   29  A    between atoms: _66  and  _67
REMARK   30  A    between atoms: _67  and  _68
REMARK   31  A    between atoms: _77  and  _79
REMARK   32  A    between atoms: _79  and  _80
REMARK   33  A    between atoms: _79  and  _82
REMARK   34  A    between atoms: _82  and  _83
REMARK   35  A    between atoms: _86  and  _88
REMARK   36  A    between atoms: _88  and  _89
REMARK   37  A    between atoms: _92  and  _94
REMARK   38  A    between atoms: _94  and  _95
REMARK   39  A    between atoms: _94  and  _97
REMARK   40  A    between atoms: _97  and  _98
REMARK   41  A    between atoms: _104  and  _106
REMARK   42  A    between atoms: _106  and  _107
REMARK   43  A    between atoms: _106  and  _109
REMARK   44  A    between atoms: _109  and  _110
REMARK   45  A    between atoms: _115  and  _116
REMARK   46  A    between atoms: _119  and  _120
REMARK   47  A    between atoms: _125  and  _127
REMARK   48  A    between atoms: _127  and  _128
REMARK   49  A    between atoms: _127  and  _130
REMARK   50  A    between atoms: _130  and  _131
REMARK   51  A    between atoms: _136  and  _138
REMARK   52  A    between atoms: _138  and  _139
REMARK   53  A    between atoms: _138  and  _141
REMARK   54  A    between atoms: _141  and  _142
REMARK   55  A    between atoms: _145  and  _147
REMARK   56  A    between atoms: _147  and  _148
REMARK   57  A    between atoms: _147  and  _150
REMARK   58  A    between atoms: _150  and  _151
REMARK   59  A    between atoms: _156  and  _158
REMARK   60  A    between atoms: _158  and  _159
REMARK   61  A    between atoms: _158  and  _161
REMARK   62  A    between atoms: _161  and  _162
REMARK   63  A    between atoms: _168  and  _170
REMARK   64  A    between atoms: _170  and  _171
REMARK   65  A    between atoms: _170  and  _173
REMARK   66  A    between atoms: _173  and  _174
REMARK   67  A    between atoms: _180  and  _182
REMARK   68  A    between atoms: _182  and  _183
REMARK   69  A    between atoms: _182  and  _185
REMARK   70  A    between atoms: _185  and  _186
REMARK   71  A    between atoms: _186  and  _187
REMARK   72  A    between atoms: _190  and  _192
REMARK   73  A    between atoms: _192  and  _193
REMARK   74  A    between atoms: _195  and  _197
REMARK   75  A    between atoms: _197  and  _198
REMARK   76  A    between atoms: _197  and  _200
REMARK   77  A    between atoms: _200  and  _201
REMARK   78  A    between atoms: _201  and  _202
REMARK   79  A    between atoms: _202  and  _203
REMARK   80  A    between atoms: _203  and  _204
REMARK   81  A    between atoms: _208  and  _210
REMARK   82  A    between atoms: _210  and  _211
REMARK   83  A    between atoms: _210  and  _213
REMARK   84  A    between atoms: _213  and  _214
REMARK   85  A    between atoms: _214  and  _215
REMARK   86  A    between atoms: _215  and  _216
REMARK   87  A    between atoms: _225  and  _227
REMARK   88  A    between atoms: _227  and  _228
REMARK   89  A    between atoms: _227  and  _230
REMARK   90  A    between atoms: _230  and  _231
REMARK   91  A    between atoms: _231  and  _232
REMARK   92  A    between atoms: _235  and  _237
REMARK   93  A    between atoms: _237  and  _238
REMARK   94  A    between atoms: _237  and  _240
REMARK   95  A    between atoms: _240  and  _241
REMARK   96  A    between atoms: _246  and  _248
REMARK   97  A    between atoms: _248  and  _249
REMARK   98  A    between atoms: _248  and  _251
REMARK   99  A    between atoms: _251  and  _252
REMARK  100  A    between atoms: _255  and  _257
REMARK  101  A    between atoms: _257  and  _258
REMARK  102  A    between atoms: _257  and  _260
REMARK  103  A    between atoms: _260  and  _261
REMARK  104  A    between atoms: _264  and  _266
REMARK  105  A    between atoms: _266  and  _267
REMARK  106  A    between atoms: _266  and  _269
REMARK  107  A    between atoms: _269  and  _270
REMARK  108  A    between atoms: _275  and  _277
REMARK  109  A    between atoms: _277  and  _278
REMARK  110  A    between atoms: _277  and  _280
REMARK  111  A    between atoms: _280  and  _281
REMARK  112  A    between atoms: _284  and  _286
REMARK  113  A    between atoms: _286  and  _287
REMARK  114  A    between atoms: _286  and  _289
REMARK  115  A    between atoms: _289  and  _290
REMARK  116  A    between atoms: _295  and  _297
REMARK  117  A    between atoms: _297  and  _298
REMARK  118  A    between atoms: _297  and  _300
REMARK  119  A    between atoms: _300  and  _301
REMARK  120  A    between atoms: _306  and  _308
REMARK  121  A    between atoms: _308  and  _309
REMARK  122  A    between atoms: _308  and  _311
REMARK  123  A    between atoms: _311  and  _312
REMARK  124  A    between atoms: _315  and  _317
REMARK  125  A    between atoms: _317  and  _318
REMARK  126  A    between atoms: _317  and  _320
REMARK  127  A    between atoms: _323  and  _325
REMARK  128  A    between atoms: _325  and  _326
REMARK  129  A    between atoms: _325  and  _328
REMARK  130  A    between atoms: _328  and  _329
REMARK  131  A    between atoms: _333  and  _334
REMARK  132  A    between atoms: _339  and  _341
REMARK  133  A    between atoms: _341  and  _342
REMARK  134  A    between atoms: _341  and  _344
REMARK  135  A    between atoms: _344  and  _345
REMARK  136  A    between atoms: _345  and  _346
REMARK  137  A    between atoms: _349  and  _351
REMARK  138  A    between atoms: _351  and  _352
REMARK  139  A    between atoms: _355  and  _357
REMARK  140  A    between atoms: _357  and  _358
REMARK  141  A    between atoms: _357  and  _360
REMARK  142  A    between atoms: _360  and  _361
REMARK  143  A    between atoms: _364  and  _366
REMARK  144  A    between atoms: _366  and  _367
REMARK  145  A    between atoms: _366  and  _369
REMARK  146  A    between atoms: _369  and  _370
REMARK  147  A    between atoms: _370  and  _371
REMARK  148  A    between atoms: _374  and  _376
REMARK  149  A    between atoms: _376  and  _377
REMARK  150  A    between atoms: _376  and  _379
REMARK  151  A    between atoms: _379  and  _380
REMARK  152  A    between atoms: _385  and  _387
REMARK  153  A    between atoms: _387  and  _388
REMARK  154  A    between atoms: _390  and  _392
REMARK  155  A    between atoms: _392  and  _393
REMARK  156  A    between atoms: _392  and  _395
REMARK  157  A    between atoms: _398  and  _400
REMARK  158  A    between atoms: _400  and  _401
REMARK  159  A    between atoms: _404  and  _406
REMARK  160  A    between atoms: _406  and  _407
REMARK  161  A    between atoms: _406  and  _409
REMARK  162  A    between atoms: _409  and  _410
REMARK  163  A    between atoms: _415  and  _417
REMARK  164  A    between atoms: _417  and  _418
REMARK  165  A    between atoms: _417  and  _420
REMARK  166  A    between atoms: _420  and  _421
REMARK  167  A    between atoms: _421  and  _422
REMARK  168  A    between atoms: _422  and  _423
REMARK  169  A    between atoms: _423  and  _424
REMARK  170  A    between atoms: _428  and  _430
REMARK  171  A    between atoms: _430  and  _431
REMARK  172  A    between atoms: _430  and  _433
REMARK  173  A    between atoms: _433  and  _434
REMARK  174  A    between atoms: _437  and  _439
REMARK  175  A    between atoms: _439  and  _440
REMARK  176  A    between atoms: _439  and  _442
REMARK  177  A    between atoms: _442  and  _443
REMARK  178  A    between atoms: _448  and  _450
REMARK  179  A    between atoms: _450  and  _451
REMARK  180  A    between atoms: _453  and  _455
REMARK  181  A    between atoms: _455  and  _456
REMARK  182  A    between atoms: _455  and  _458
REMARK  183  A    between atoms: _458  and  _459
REMARK  184  A    between atoms: _459  and  _460
REMARK  185  A    between atoms: _460  and  _461
REMARK  186  A    between atoms: _461  and  _462
REMARK  187  A    between atoms: _466  and  _468
REMARK  188  A    between atoms: _468  and  _469
REMARK  189  A    between atoms: _468  and  _471
REMARK  190  A    between atoms: _471  and  _472
REMARK  191  A    between atoms: _472  and  _473
REMARK  192  A    between atoms: _473  and  _474
REMARK  193  A    between atoms: _483  and  _485
REMARK  194  A    between atoms: _485  and  _486
REMARK  195  A    between atoms: _485  and  _488
REMARK  196  A    between atoms: _488  and  _489
REMARK  197  A    between atoms: _494  and  _496
REMARK  198  A    between atoms: _496  and  _497
REMARK  199  A    between atoms: _496  and  _499
REMARK  200  A    between atoms: _499  and  _500
REMARK  201  A    between atoms: _505  and  _506
REMARK  202  A    between atoms: _508  and  _510
REMARK  203  A    between atoms: _510  and  _511
REMARK  204  A    between atoms: _510  and  _513
REMARK  205  A    between atoms: _513  and  _514
REMARK  206  A    between atoms: _514  and  _515
REMARK  207  A    between atoms: _515  and  _516
REMARK  208  A    between atoms: _516  and  _517
REMARK  209  A    between atoms: _521  and  _523
REMARK  210  A    between atoms: _523  and  _524
REMARK  211  A    between atoms: _523  and  _526
REMARK  212  A    between atoms: _526  and  _527
REMARK  213  A    between atoms: _529  and  _531
REMARK  214  A    between atoms: _531  and  _532
REMARK  215  A    between atoms: _531  and  _534
REMARK  216  A    between atoms: _534  and  _535
REMARK  217  A    between atoms: _538  and  _540
REMARK  218  A    between atoms: _540  and  _541
REMARK  219  A    between atoms: _540  and  _543
REMARK  220  A    between atoms: _543  and  _544
REMARK  221  A    between atoms: _544  and  _545
REMARK  222  A    between atoms: _548  and  _550
REMARK  223  A    between atoms: _550  and  _551
REMARK  224  A    between atoms: _554  and  _556
REMARK  225  A    between atoms: _556  and  _557
REMARK  226  A    between atoms: _556  and  _559
REMARK  227  A    between atoms: _559  and  _560
REMARK  228  A    between atoms: _562  and  _564
REMARK  229  A    between atoms: _564  and  _565
REMARK  230  A    between atoms: _567  and  _569
REMARK  231  A    between atoms: _569  and  _570
REMARK  232  A    between atoms: _569  and  _572
REMARK  233  A    between atoms: _572  and  _573
REMARK  234  A    between atoms: _576  and  _578
REMARK  235  A    between atoms: _578  and  _579
REMARK  236  A    between atoms: _581  and  _583
REMARK  237  A    between atoms: _583  and  _584
REMARK  238  A    between atoms: _583  and  _586
REMARK  239  A    between atoms: _586  and  _587
REMARK  240  A    between atoms: _592  and  _594
REMARK  241  A    between atoms: _594  and  _595
REMARK  242  A    between atoms: _594  and  _597
REMARK  243  A    between atoms: _597  and  _598
REMARK  244  A    between atoms: _598  and  _599
REMARK  245  A    between atoms: _606  and  _607
REMARK  246  A    between atoms: _607  and  _623
REMARK  247  A    between atoms: _608  and  _610
REMARK  248  A    between atoms: _610  and  _611
REMARK  249  A    between atoms: _611  and  _612
REMARK  250  A    between atoms: _616  and  _618
REMARK  251  A    between atoms: _618  and  _619
REMARK  252  A    between atoms: _618  and  _626
REMARK  253  A    between atoms: _619  and  _620
REMARK  254  A    between atoms: _620  and  _621
REMARK  255  A    between atoms: _621  and  _622
REMARK  256  A    between atoms: _622  and  _623
REMARK  257  A    between atoms: _628  and  _630
REMARK  258  A    between atoms: _630  and  _631
REMARK  259  A    between atoms: _630  and  _633
REMARK  260  A    between atoms: _633  and  _634
REMARK  261  A    between atoms: _637  and  _639
REMARK  262  A    between atoms: _639  and  _640
REMARK  263  A    between atoms: _642  and  _644
REMARK  264  A    between atoms: _644  and  _645
REMARK  265  A    between atoms: _648  and  _650
REMARK  266  A    between atoms: _650  and  _651
REMARK  267  A    between atoms: _650  and  _653
REMARK  268  A    between atoms: _653  and  _654
REMARK  269  A    between atoms: _659  and  _660
REMARK                            x       y       z     vdW  Elec       q    Type
REMARK                         _______ _______ _______ _____ _____    ______ ____
ROOT
ATOM      1  O   HOH     1      35.395  27.645  37.212  0.00  0.00    +0.000 OA
ENDROOT
TORSDOF 0
REMARK  Name = ../refined-set-2016/2pyi/2pyi_pocket.pdb
REMARK  269 active torsions:
REMARK  status: ('A' for Active; 'I' for Inactive)
REMARK    1  A    between atoms: _1  and  _3
REMARK    2  A    between atoms: _3  and  _4
REMARK    3  A    between atoms: _3  and  _6
REMARK    4  A    between atoms: _6  and  _7
REMARK    5  A    between atoms: _12  and  _13
REMARK    6  A    between atoms: _15  and  _17
REMARK    7  A    between atoms: _17  and  _18
REMARK    8  A    between atoms: _17  and  _20
REMARK    9  A    between atoms: _20  and  _21
REMARK   10  A    between atoms: _21  and  _22
REMARK   11  A    between atoms: _25  and  _27
REMARK   12  A    between atoms: _27  and  _28
REMARK   13  A    between atoms: _27  and  _30
REMARK   14  A    between atoms: _30  and  _31
REMARK   15  A    between atoms: _36  and  _38
REMARK   16  A    between atoms: _38  and  _39
REMARK   17  A    between atoms: _41  and  _43
REMARK   18  A    between atoms: _43  and  _44
REMARK   19  A    between atoms: _46  and  _48
REMARK   20  A    between atoms: _48  and  _49
REMARK   21  A    between atoms: _48  and  _51
REMARK   22  A    between atoms: _51  and  _52
REMARK   23  A    between atoms: _55  and  _57
REMARK   24  A    between atoms: _57  and  _58
REMARK   25  A    between atoms: _60  and  _62
REMARK   26  A    between atoms: _62  and  _63
REMARK   27  A    between atoms: _62  and  _65
REMARK   28  A    between atoms: _65  and  _66
REMARK   29  A    between atoms: _66  and  _67
REMARK   30  A    between atoms: _67  and  _68
REMARK   31  A    between atoms: _77  and  _79
REMARK   32  A    between atoms: _79  and  _80
REMARK   33  A    between atoms: _79  and  _82
REMARK   34  A    between atoms: _82  and  _83
REMARK   35  A    between atoms: _86  and  _88
REMARK   36  A    between atoms: _88  and  _89
REMARK   37  A    between atoms: _92  and  _94
REMARK   38  A    between atoms: _94  and  _95
REMARK   39  A    between atoms: _94  and  _97
REMARK   40  A    between atoms: _97  and  _98
REMARK   41  A    between atoms: _104  and  _106
REMARK   42  A    between atoms: _106  and  _107
REMARK   43  A    between atoms: _106  and  _109
REMARK   44  A    between atoms: _109  and  _110
REMARK   45  A    between atoms: _115  and  _116
REMARK   46  A    between atoms: _119  and  _120
REMARK   47  A    between atoms: _125  and  _127
REMARK   48  A    between atoms: _127  and  _128
REMARK   49  A    between atoms: _127  and  _130
REMARK   50  A    between atoms: _130  and  _131
REMARK   51  A    between atoms: _136  and  _138
REMARK   52  A    between atoms: _138  and  _139
REMARK   53  A    between atoms: _138  and  _141
REMARK   54  A    between atoms: _141  and  _142
REMARK   55  A    between atoms: _145  and  _147
REMARK   56  A    between atoms: _147  and  _148
REMARK   57  A    between atoms: _147  and  _150
REMARK   58  A    between atoms: _150  and  _151
REMARK   59  A    between atoms: _156  and  _158
REMARK   60  A    between atoms: _158  and  _159
REMARK   61  A    between atoms: _158  and  _161
REMARK   62  A    between atoms: _161  and  _162
REMARK   63  A    between atoms: _168  and  _170
REMARK   64  A    between atoms: _170  and  _171
REMARK   65  A    between atoms: _170  and  _173
REMARK   66  A    between atoms: _173  and  _174
REMARK   67  A    between atoms: _180  and  _182
REMARK   68  A    between atoms: _182  and  _183
REMARK   69  A    between atoms: _182  and  _185
REMARK   70  A    between atoms: _185  and  _186
REMARK   71  A    between atoms: _186  and  _187
REMARK   72  A    between atoms: _190  and  _192
REMARK   73  A    between atoms: _192  and  _193
REMARK   74  A    between atoms: _195  and  _197
REMARK   75  A    between atoms: _197  and  _198
REMARK   76  A    between atoms: _197  and  _200
REMARK   77  A    between atoms: _200  and  _201
REMARK   78  A    between atoms: _201  and  _202
REMARK   79  A    between atoms: _202  and  _203
REMARK   80  A    between atoms: _203  and  _204
REMARK   81  A    between atoms: _208  and  _210
REMARK   82  A    between atoms: _210  and  _211
REMARK   83  A    between atoms: _210  and  _213
REMARK   84  A    between atoms: _213  and  _214
REMARK   85  A    between atoms: _214  and  _215
REMARK   86  A    between atoms: _215  and  _216
REMARK   87  A    between atoms: _225  and  _227
REMARK   88  A    between atoms: _227  and  _228
REMARK   89  A    between atoms: _227  and  _230
REMARK   90  A    between atoms: _230  and  _231
REMARK   91  A    between atoms: _231  and  _232
REMARK   92  A    between atoms: _235  and  _237
REMARK   93  A    between atoms: _237  and  _238
REMARK   94  A    between atoms: _237  and  _240
REMARK   95  A    between atoms: _240  and  _241
REMARK   96  A    between atoms: _246  and  _248
REMARK   97  A    between atoms: _248  and  _249
REMARK   98  A    between atoms: _248  and  _251
REMARK   99  A    between atoms: _251  and  _252
REMARK  100  A    between atoms: _255  and  _257
REMARK  101  A    between atoms: _257  and  _258
REMARK  102  A    between atoms: _257  and  _260
REMARK  103  A    between atoms: _260  and  _261
REMARK  104  A    between atoms: _264  and  _266
REMARK  105  A    between atoms: _266  and  _267
REMARK  106  A    between atoms: _266  and  _269
REMARK  107  A    between atoms: _269  and  _270
REMARK  108  A    between atoms: _275  and  _277
REMARK  109  A    between atoms: _277  and  _278
REMARK  110  A    between atoms: _277  and  _280
REMARK  111  A    between atoms: _280  and  _281
REMARK  112  A    between atoms: _284  and  _286
REMARK  113  A    between atoms: _286  and  _287
REMARK  114  A    between atoms: _286  and  _289
REMARK  115  A    between atoms: _289  and  _290
REMARK  116  A    between atoms: _295  and  _297
REMARK  117  A    between atoms: _297  and  _298
REMARK  118  A    between atoms: _297  and  _300
REMARK  119  A    between atoms: _300  and  _301
REMARK  120  A    between atoms: _306  and  _308
REMARK  121  A    between atoms: _308  and  _309
REMARK  122  A    between atoms: _308  and  _311
REMARK  123  A    between atoms: _311  and  _312
REMARK  124  A    between atoms: _315  and  _317
REMARK  125  A    between atoms: _317  and  _318
REMARK  126  A    between atoms: _317  and  _320
REMARK  127  A    between atoms: _323  and  _325
REMARK  128  A    between atoms: _325  and  _326
REMARK  129  A    between atoms: _325  and  _328
REMARK  130  A    between atoms: _328  and  _329
REMARK  131  A    between atoms: _333  and  _334
REMARK  132  A    between atoms: _339  and  _341
REMARK  133  A    between atoms: _341  and  _342
REMARK  134  A    between atoms: _341  and  _344
REMARK  135  A    between atoms: _344  and  _345
REMARK  136  A    between atoms: _345  and  _346
REMARK  137  A    between atoms: _349  and  _351
REMARK  138  A    between atoms: _351  and  _352
REMARK  139  A    between atoms: _355  and  _357
REMARK  140  A    between atoms: _357  and  _358
REMARK  141  A    between atoms: _357  and  _360
REMARK  142  A    between atoms: _360  and  _361
REMARK  143  A    between atoms: _364  and  _366
REMARK  144  A    between atoms: _366  and  _367
REMARK  145  A    between atoms: _366  and  _369
REMARK  146  A    between atoms: _369  and  _370
REMARK  147  A    between atoms: _370  and  _371
REMARK  148  A    between atoms: _374  and  _376
REMARK  149  A    between atoms: _376  and  _377
REMARK  150  A    between atoms: _376  and  _379
REMARK  151  A    between atoms: _379  and  _380
REMARK  152  A    between atoms: _385  and  _387
REMARK  153  A    between atoms: _387  and  _388
REMARK  154  A    between atoms: _390  and  _392
REMARK  155  A    between atoms: _392  and  _393
REMARK  156  A    between atoms: _392  and  _395
REMARK  157  A    between atoms: _398  and  _400
REMARK  158  A    between atoms: _400  and  _401
REMARK  159  A    between atoms: _404  and  _406
REMARK  160  A    between atoms: _406  and  _407
REMARK  161  A    between atoms: _406  and  _409
REMARK  162  A    between atoms: _409  and  _410
REMARK  163  A    between atoms: _415  and  _417
REMARK  164  A    between atoms: _417  and  _418
REMARK  165  A    between atoms: _417  and  _420
REMARK  166  A    between atoms: _420  and  _421
REMARK  167  A    between atoms: _421  and  _422
REMARK  168  A    between atoms: _422  and  _423
REMARK  169  A    between atoms: _423  and  _424
REMARK  170  A    between atoms: _428  and  _430
REMARK  171  A    between atoms: _430  and  _431
REMARK  172  A    between atoms: _430  and  _433
REMARK  173  A    between atoms: _433  and  _434
REMARK  174  A    between atoms: _437  and  _439
REMARK  175  A    between atoms: _439  and  _440
REMARK  176  A    between atoms: _439  and  _442
REMARK  177  A    between atoms: _442  and  _443
REMARK  178  A    between atoms: _448  and  _450
REMARK  179  A    between atoms: _450  and  _451
REMARK  180  A    between atoms: _453  and  _455
REMARK  181  A    between atoms: _455  and  _456
REMARK  182  A    between atoms: _455  and  _458
REMARK  183  A    between atoms: _458  and  _459
REMARK  184  A    between atoms: _459  and  _460
REMARK  185  A    between atoms: _460  and  _461
REMARK  186  A    between atoms: _461  and  _462
REMARK  187  A    between atoms: _466  and  _468
REMARK  188  A    between atoms: _468  and  _469
REMARK  189  A    between atoms: _468  and  _471
REMARK  190  A    between atoms: _471  and  _472
REMARK  191  A    between atoms: _472  and  _473
REMARK  192  A    between atoms: _473  and  _474
REMARK  193  A    between atoms: _483  and  _485
REMARK  194  A    between atoms: _485  and  _486
REMARK  195  A    between atoms: _485  and  _488
REMARK  196  A    between atoms: _488  and  _489
REMARK  197  A    between atoms: _494  and  _496
REMARK  198  A    between atoms: _496  and  _497
REMARK  199  A    between atoms: _496  and  _499
REMARK  200  A    between atoms: _499  and  _500
REMARK  201  A    between atoms: _505  and  _506
REMARK  202  A    between atoms: _508  and  _510
REMARK  203  A    between atoms: _510  and  _511
REMARK  204  A    between atoms: _510  and  _513
REMARK  205  A    between atoms: _513  and  _514
REMARK  206  A    between atoms: _514  and  _515
REMARK  207  A    between atoms: _515  and  _516
REMARK  208  A    between atoms: _516  and  _517
REMARK  209  A    between atoms: _521  and  _523
REMARK  210  A    between atoms: _523  and  _524
REMARK  211  A    between atoms: _523  and  _526
REMARK  212  A    between atoms: _526  and  _527
REMARK  213  A    between atoms: _529  and  _531
REMARK  214  A    between atoms: _531  and  _532
REMARK  215  A    between atoms: _531  and  _534
REMARK  216  A    between atoms: _534  and  _535
REMARK  217  A    between atoms: _538  and  _540
REMARK  218  A    between atoms: _540  and  _541
REMARK  219  A    between atoms: _540  and  _543
REMARK  220  A    between atoms: _543  and  _544
REMARK  221  A    between atoms: _544  and  _545
REMARK  222  A    between atoms: _548  and  _550
REMARK  223  A    between atoms: _550  and  _551
REMARK  224  A    between atoms: _554  and  _556
REMARK  225  A    between atoms: _556  and  _557
REMARK  226  A    between atoms: _556  and  _559
REMARK  227  A    between atoms: _559  and  _560
REMARK  228  A    between atoms: _562  and  _564
REMARK  229  A    between atoms: _564  and  _565
REMARK  230  A    between atoms: _567  and  _569
REMARK  231  A    between atoms: _569  and  _570
REMARK  232  A    between atoms: _569  and  _572
REMARK  233  A    between atoms: _572  and  _573
REMARK  234  A    between atoms: _576  and  _578
REMARK  235  A    between atoms: _578  and  _579
REMARK  236  A    between atoms: _581  and  _583
REMARK  237  A    between atoms: _583  and  _584
REMARK  238  A    between atoms: _583  and  _586
REMARK  239  A    between atoms: _586  and  _587
REMARK  240  A    between atoms: _592  and  _594
REMARK  241  A    between atoms: _594  and  _595
REMARK  242  A    between atoms: _594  and  _597
REMARK  243  A    between atoms: _597  and  _598
REMARK  244  A    between atoms: _598  and  _599
REMARK  245  A    between atoms: _606  and  _607
REMARK  246  A    between atoms: _607  and  _623
REMARK  247  A    between atoms: _608  and  _610
REMARK  248  A    between atoms: _610  and  _611
REMARK  249  A    between atoms: _611  and  _612
REMARK  250  A    between atoms: _616  and  _618
REMARK  251  A    between atoms: _618  and  _619
REMARK  252  A    between atoms: _618  and  _626
REMARK  253  A    between atoms: _619  and  _620
REMARK  254  A    between atoms: _620  and  _621
REMARK  255  A    between atoms: _621  and  _622
REMARK  256  A    between atoms: _622  and  _623
REMARK  257  A    between atoms: _628  and  _630
REMARK  258  A    between atoms: _630  and  _631
REMARK  259  A    between atoms: _630  and  _633
REMARK  260  A    between atoms: _633  and  _634
REMARK  261  A    between atoms: _637  and  _639
REMARK  262  A    between atoms: _639  and  _640
REMARK  263  A    between atoms: _642  and  _644
REMARK  264  A    between atoms: _644  and  _645
REMARK  265  A    between atoms: _648  and  _650
REMARK  266  A    between atoms: _650  and  _651
REMARK  267  A    between atoms: _650  and  _653
REMARK  268  A    between atoms: _653  and  _654
REMARK  269  A    between atoms: _659  and  _660
REMARK                            x       y       z     vdW  Elec       q    Type
REMARK                         _______ _______ _______ _____ _____    ______ ____
ROOT
ATOM      1  O   HOH     1      40.541  25.160  33.738  0.00  0.00    +0.000 OA
ENDROOT
TORSDOF 0
REMARK  Name = ../refined-set-2016/2pyi/2pyi_pocket.pdb
REMARK  269 active torsions:
REMARK  status: ('A' for Active; 'I' for Inactive)
REMARK    1  A    between atoms: _1  and  _3
REMARK    2  A    between atoms: _3  and  _4
REMARK    3  A    between atoms: _3  and  _6
REMARK    4  A    between atoms: _6  and  _7
REMARK    5  A    between atoms: _12  and  _13
REMARK    6  A    between atoms: _15  and  _17
REMARK    7  A    between atoms: _17  and  _18
REMARK    8  A    between atoms: _17  and  _20
REMARK    9  A    between atoms: _20  and  _21
REMARK   10  A    between atoms: _21  and  _22
REMARK   11  A    between atoms: _25  and  _27
REMARK   12  A    between atoms: _27  and  _28
REMARK   13  A    between atoms: _27  and  _30
REMARK   14  A    between atoms: _30  and  _31
REMARK   15  A    between atoms: _36  and  _38
REMARK   16  A    between atoms: _38  and  _39
REMARK   17  A    between atoms: _41  and  _43
REMARK   18  A    between atoms: _43  and  _44
REMARK   19  A    between atoms: _46  and  _48
REMARK   20  A    between atoms: _48  and  _49
REMARK   21  A    between atoms: _48  and  _51
REMARK   22  A    between atoms: _51  and  _52
REMARK   23  A    between atoms: _55  and  _57
REMARK   24  A    between atoms: _57  and  _58
REMARK   25  A    between atoms: _60  and  _62
REMARK   26  A    between atoms: _62  and  _63
REMARK   27  A    between atoms: _62  and  _65
REMARK   28  A    between atoms: _65  and  _66
REMARK   29  A    between atoms: _66  and  _67
REMARK   30  A    between atoms: _67  and  _68
REMARK   31  A    between atoms: _77  and  _79
REMARK   32  A    between atoms: _79  and  _80
REMARK   33  A    between atoms: _79  and  _82
REMARK   34  A    between atoms: _82  and  _83
REMARK   35  A    between atoms: _86  and  _88
REMARK   36  A    between atoms: _88  and  _89
REMARK   37  A    between atoms: _92  and  _94
REMARK   38  A    between atoms: _94  and  _95
REMARK   39  A    between atoms: _94  and  _97
REMARK   40  A    between atoms: _97  and  _98
REMARK   41  A    between atoms: _104  and  _106
REMARK   42  A    between atoms: _106  and  _107
REMARK   43  A    between atoms: _106  and  _109
REMARK   44  A    between atoms: _109  and  _110
REMARK   45  A    between atoms: _115  and  _116
REMARK   46  A    between atoms: _119  and  _120
REMARK   47  A    between atoms: _125  and  _127
REMARK   48  A    between atoms: _127  and  _128
REMARK   49  A    between atoms: _127  and  _130
REMARK   50  A    between atoms: _130  and  _131
REMARK   51  A    between atoms: _136  and  _138
REMARK   52  A    between atoms: _138  and  _139
REMARK   53  A    between atoms: _138  and  _141
REMARK   54  A    between atoms: _141  and  _142
REMARK   55  A    between atoms: _145  and  _147
REMARK   56  A    between atoms: _147  and  _148
REMARK   57  A    between atoms: _147  and  _150
REMARK   58  A    between atoms: _150  and  _151
REMARK   59  A    between atoms: _156  and  _158
REMARK   60  A    between atoms: _158  and  _159
REMARK   61  A    between atoms: _158  and  _161
REMARK   62  A    between atoms: _161  and  _162
REMARK   63  A    between atoms: _168  and  _170
REMARK   64  A    between atoms: _170  and  _171
REMARK   65  A    between atoms: _170  and  _173
REMARK   66  A    between atoms: _173  and  _174
REMARK   67  A    between atoms: _180  and  _182
REMARK   68  A    between atoms: _182  and  _183
REMARK   69  A    between atoms: _182  and  _185
REMARK   70  A    between atoms: _185  and  _186
REMARK   71  A    between atoms: _186  and  _187
REMARK   72  A    between atoms: _190  and  _192
REMARK   73  A    between atoms: _192  and  _193
REMARK   74  A    between atoms: _195  and  _197
REMARK   75  A    between atoms: _197  and  _198
REMARK   76  A    between atoms: _197  and  _200
REMARK   77  A    between atoms: _200  and  _201
REMARK   78  A    between atoms: _201  and  _202
REMARK   79  A    between atoms: _202  and  _203
REMARK   80  A    between atoms: _203  and  _204
REMARK   81  A    between atoms: _208  and  _210
REMARK   82  A    between atoms: _210  and  _211
REMARK   83  A    between atoms: _210  and  _213
REMARK   84  A    between atoms: _213  and  _214
REMARK   85  A    between atoms: _214  and  _215
REMARK   86  A    between atoms: _215  and  _216
REMARK   87  A    between atoms: _225  and  _227
REMARK   88  A    between atoms: _227  and  _228
REMARK   89  A    between atoms: _227  and  _230
REMARK   90  A    between atoms: _230  and  _231
REMARK   91  A    between atoms: _231  and  _232
REMARK   92  A    between atoms: _235  and  _237
REMARK   93  A    between atoms: _237  and  _238
REMARK   94  A    between atoms: _237  and  _240
REMARK   95  A    between atoms: _240  and  _241
REMARK   96  A    between atoms: _246  and  _248
REMARK   97  A    between atoms: _248  and  _249
REMARK   98  A    between atoms: _248  and  _251
REMARK   99  A    between atoms: _251  and  _252
REMARK  100  A    between atoms: _255  and  _257
REMARK  101  A    between atoms: _257  and  _258
REMARK  102  A    between atoms: _257  and  _260
REMARK  103  A    between atoms: _260  and  _261
REMARK  104  A    between atoms: _264  and  _266
REMARK  105  A    between atoms: _266  and  _267
REMARK  106  A    between atoms: _266  and  _269
REMARK  107  A    between atoms: _269  and  _270
REMARK  108  A    between atoms: _275  and  _277
REMARK  109  A    between atoms: _277  and  _278
REMARK  110  A    between atoms: _277  and  _280
REMARK  111  A    between atoms: _280  and  _281
REMARK  112  A    between atoms: _284  and  _286
REMARK  113  A    between atoms: _286  and  _287
REMARK  114  A    between atoms: _286  and  _289
REMARK  115  A    between atoms: _289  and  _290
REMARK  116  A    between atoms: _295  and  _297
REMARK  117  A    between atoms: _297  and  _298
REMARK  118  A    between atoms: _297  and  _300
REMARK  119  A    between atoms: _300  and  _301
REMARK  120  A    between atoms: _306  and  _308
REMARK  121  A    between atoms: _308  and  _309
REMARK  122  A    between atoms: _308  and  _311
REMARK  123  A    between atoms: _311  and  _312
REMARK  124  A    between atoms: _315  and  _317
REMARK  125  A    between atoms: _317  and  _318
REMARK  126  A    between atoms: _317  and  _320
REMARK  127  A    between atoms: _323  and  _325
REMARK  128  A    between atoms: _325  and  _326
REMARK  129  A    between atoms: _325  and  _328
REMARK  130  A    between atoms: _328  and  _329
REMARK  131  A    between atoms: _333  and  _334
REMARK  132  A    between atoms: _339  and  _341
REMARK  133  A    between atoms: _341  and  _342
REMARK  134  A    between atoms: _341  and  _344
REMARK  135  A    between atoms: _344  and  _345
REMARK  136  A    between atoms: _345  and  _346
REMARK  137  A    between atoms: _349  and  _351
REMARK  138  A    between atoms: _351  and  _352
REMARK  139  A    between atoms: _355  and  _357
REMARK  140  A    between atoms: _357  and  _358
REMARK  141  A    between atoms: _357  and  _360
REMARK  142  A    between atoms: _360  and  _361
REMARK  143  A    between atoms: _364  and  _366
REMARK  144  A    between atoms: _366  and  _367
REMARK  145  A    between atoms: _366  and  _369
REMARK  146  A    between atoms: _369  and  _370
REMARK  147  A    between atoms: _370  and  _371
REMARK  148  A    between atoms: _374  and  _376
REMARK  149  A    between atoms: _376  and  _377
REMARK  150  A    between atoms: _376  and  _379
REMARK  151  A    between atoms: _379  and  _380
REMARK  152  A    between atoms: _385  and  _387
REMARK  153  A    between atoms: _387  and  _388
REMARK  154  A    between atoms: _390  and  _392
REMARK  155  A    between atoms: _392  and  _393
REMARK  156  A    between atoms: _392  and  _395
REMARK  157  A    between atoms: _398  and  _400
REMARK  158  A    between atoms: _400  and  _401
REMARK  159  A    between atoms: _404  and  _406
REMARK  160  A    between atoms: _406  and  _407
REMARK  161  A    between atoms: _406  and  _409
REMARK  162  A    between atoms: _409  and  _410
REMARK  163  A    between atoms: _415  and  _417
REMARK  164  A    between atoms: _417  and  _418
REMARK  165  A    between atoms: _417  and  _420
REMARK  166  A    between atoms: _420  and  _421
REMARK  167  A    between atoms: _421  and  _422
REMARK  168  A    between atoms: _422  and  _423
REMARK  169  A    between atoms: _423  and  _424
REMARK  170  A    between atoms: _428  and  _430
REMARK  171  A    between atoms: _430  and  _431
REMARK  172  A    between atoms: _430  and  _433
REMARK  173  A    between atoms: _433  and  _434
REMARK  174  A    between atoms: _437  and  _439
REMARK  175  A    between atoms: _439  and  _440
REMARK  176  A    between atoms: _439  and  _442
REMARK  177  A    between atoms: _442  and  _443
REMARK  178  A    between atoms: _448  and  _450
REMARK  179  A    between atoms: _450  and  _451
REMARK  180  A    between atoms: _453  and  _455
REMARK  181  A    between atoms: _455  and  _456
REMARK  182  A    between atoms: _455  and  _458
REMARK  183  A    between atoms: _458  and  _459
REMARK  184  A    between atoms: _459  and  _460
REMARK  185  A    between atoms: _460  and  _461
REMARK  186  A    between atoms: _461  and  _462
REMARK  187  A    between atoms: _466  and  _468
REMARK  188  A    between atoms: _468  and  _469
REMARK  189  A    between atoms: _468  and  _471
REMARK  190  A    between atoms: _471  and  _472
REMARK  191  A    between atoms: _472  and  _473
REMARK  192  A    between atoms: _473  and  _474
REMARK  193  A    between atoms: _483  and  _485
REMARK  194  A    between atoms: _485  and  _486
REMARK  195  A    between atoms: _485  and  _488
REMARK  196  A    between atoms: _488  and  _489
REMARK  197  A    between atoms: _494  and  _496
REMARK  198  A    between atoms: _496  and  _497
REMARK  199  A    between atoms: _496  and  _499
REMARK  200  A    between atoms: _499  and  _500
REMARK  201  A    between atoms: _505  and  _506
REMARK  202  A    between atoms: _508  and  _510
REMARK  203  A    between atoms: _510  and  _511
REMARK  204  A    between atoms: _510  and  _513
REMARK  205  A    between atoms: _513  and  _514
REMARK  206  A    between atoms: _514  and  _515
REMARK  207  A    between atoms: _515  and  _516
REMARK  208  A    between atoms: _516  and  _517
REMARK  209  A    between atoms: _521  and  _523
REMARK  210  A    between atoms: _523  and  _524
REMARK  211  A    between atoms: _523  and  _526
REMARK  212  A    between atoms: _526  and  _527
REMARK  213  A    between atoms: _529  and  _531
REMARK  214  A    between atoms: _531  and  _532
REMARK  215  A    between atoms: _531  and  _534
REMARK  216  A    between atoms: _534  and  _535
REMARK  217  A    between atoms: _538  and  _540
REMARK  218  A    between atoms: _540  and  _541
REMARK  219  A    between atoms: _540  and  _543
REMARK  220  A    between atoms: _543  and  _544
REMARK  221  A    between atoms: _544  and  _545
REMARK  222  A    between atoms: _548  and  _550
REMARK  223  A    between atoms: _550  and  _551
REMARK  224  A    between atoms: _554  and  _556
REMARK  225  A    between atoms: _556  and  _557
REMARK  226  A    between atoms: _556  and  _559
REMARK  227  A    between atoms: _559  and  _560
REMARK  228  A    between atoms: _562  and  _564
REMARK  229  A    between atoms: _564  and  _565
REMARK  230  A    between atoms: _567  and  _569
REMARK  231  A    between atoms: _569  and  _570
REMARK  232  A    between atoms: _569  and  _572
REMARK  233  A    between atoms: _572  and  _573
REMARK  234  A    between atoms: _576  and  _578
REMARK  235  A    between atoms: _578  and  _579
REMARK  236  A    between atoms: _581  and  _583
REMARK  237  A    between atoms: _583  and  _584
REMARK  238  A    between atoms: _583  and  _586
REMARK  239  A    between atoms: _586  and  _587
REMARK  240  A    between atoms: _592  and  _594
REMARK  241  A    between atoms: _594  and  _595
REMARK  242  A    between atoms: _594  and  _597
REMARK  243  A    between atoms: _597  and  _598
REMARK  244  A    between atoms: _598  and  _599
REMARK  245  A    between atoms: _606  and  _607
REMARK  246  A    between atoms: _607  and  _623
REMARK  247  A    between atoms: _608  and  _610
REMARK  248  A    between atoms: _610  and  _611
REMARK  249  A    between atoms: _611  and  _612
REMARK  250  A    between atoms: _616  and  _618
REMARK  251  A    between atoms: _618  and  _619
REMARK  252  A    between atoms: _618  and  _626
REMARK  253  A    between atoms: _619  and  _620
REMARK  254  A    between atoms: _620  and  _621
REMARK  255  A    between atoms: _621  and  _622
REMARK  256  A    between atoms: _622  and  _623
REMARK  257  A    between atoms: _628  and  _630
REMARK  258  A    between atoms: _630  and  _631
REMARK  259  A    between atoms: _630  and  _633
REMARK  260  A    between atoms: _633  and  _634
REMARK  261  A    between atoms: _637  and  _639
REMARK  262  A    between atoms: _639  and  _640
REMARK  263  A    between atoms: _642  and  _644
REMARK  264  A    between atoms: _644  and  _645
REMARK  265  A    between atoms: _648  and  _650
REMARK  266  A    between atoms: _650  and  _651
REMARK  267  A    between atoms: _650  and  _653
REMARK  268  A    between atoms: _653  and  _654
REMARK  269  A    between atoms: _659  and  _660
REMARK                            x       y       z     vdW  Elec       q    Type
REMARK                         _______ _______ _______ _____ _____    ______ ____
ROOT
ATOM      1  O   HOH     1      38.255  23.477  21.598  0.00  0.00    +0.000 OA
ENDROOT
TORSDOF 0
REMARK  Name = ../refined-set-2016/2pyi/2pyi_pocket.pdb
REMARK  269 active torsions:
REMARK  status: ('A' for Active; 'I' for Inactive)
REMARK    1  A    between atoms: _1  and  _3
REMARK    2  A    between atoms: _3  and  _4
REMARK    3  A    between atoms: _3  and  _6
REMARK    4  A    between atoms: _6  and  _7
REMARK    5  A    between atoms: _12  and  _13
REMARK    6  A    between atoms: _15  and  _17
REMARK    7  A    between atoms: _17  and  _18
REMARK    8  A    between atoms: _17  and  _20
REMARK    9  A    between atoms: _20  and  _21
REMARK   10  A    between atoms: _21  and  _22
REMARK   11  A    between atoms: _25  and  _27
REMARK   12  A    between atoms: _27  and  _28
REMARK   13  A    between atoms: _27  and  _30
REMARK   14  A    between atoms: _30  and  _31
REMARK   15  A    between atoms: _36  and  _38
REMARK   16  A    between atoms: _38  and  _39
REMARK   17  A    between atoms: _41  and  _43
REMARK   18  A    between atoms: _43  and  _44
REMARK   19  A    between atoms: _46  and  _48
REMARK   20  A    between atoms: _48  and  _49
REMARK   21  A    between atoms: _48  and  _51
REMARK   22  A    between atoms: _51  and  _52
REMARK   23  A    between atoms: _55  and  _57
REMARK   24  A    between atoms: _57  and  _58
REMARK   25  A    between atoms: _60  and  _62
REMARK   26  A    between atoms: _62  and  _63
REMARK   27  A    between atoms: _62  and  _65
REMARK   28  A    between atoms: _65  and  _66
REMARK   29  A    between atoms: _66  and  _67
REMARK   30  A    between atoms: _67  and  _68
REMARK   31  A    between atoms: _77  and  _79
REMARK   32  A    between atoms: _79  and  _80
REMARK   33  A    between atoms: _79  and  _82
REMARK   34  A    between atoms: _82  and  _83
REMARK   35  A    between atoms: _86  and  _88
REMARK   36  A    between atoms: _88  and  _89
REMARK   37  A    between atoms: _92  and  _94
REMARK   38  A    between atoms: _94  and  _95
REMARK   39  A    between atoms: _94  and  _97
REMARK   40  A    between atoms: _97  and  _98
REMARK   41  A    between atoms: _104  and  _106
REMARK   42  A    between atoms: _106  and  _107
REMARK   43  A    between atoms: _106  and  _109
REMARK   44  A    between atoms: _109  and  _110
REMARK   45  A    between atoms: _115  and  _116
REMARK   46  A    between atoms: _119  and  _120
REMARK   47  A    between atoms: _125  and  _127
REMARK   48  A    between atoms: _127  and  _128
REMARK   49  A    between atoms: _127  and  _130
REMARK   50  A    between atoms: _130  and  _131
REMARK   51  A    between atoms: _136  and  _138
REMARK   52  A    between atoms: _138  and  _139
REMARK   53  A    between atoms: _138  and  _141
REMARK   54  A    between atoms: _141  and  _142
REMARK   55  A    between atoms: _145  and  _147
REMARK   56  A    between atoms: _147  and  _148
REMARK   57  A    between atoms: _147  and  _150
REMARK   58  A    between atoms: _150  and  _151
REMARK   59  A    between atoms: _156  and  _158
REMARK   60  A    between atoms: _158  and  _159
REMARK   61  A    between atoms: _158  and  _161
REMARK   62  A    between atoms: _161  and  _162
REMARK   63  A    between atoms: _168  and  _170
REMARK   64  A    between atoms: _170  and  _171
REMARK   65  A    between atoms: _170  and  _173
REMARK   66  A    between atoms: _173  and  _174
REMARK   67  A    between atoms: _180  and  _182
REMARK   68  A    between atoms: _182  and  _183
REMARK   69  A    between atoms: _182  and  _185
REMARK   70  A    between atoms: _185  and  _186
REMARK   71  A    between atoms: _186  and  _187
REMARK   72  A    between atoms: _190  and  _192
REMARK   73  A    between atoms: _192  and  _193
REMARK   74  A    between atoms: _195  and  _197
REMARK   75  A    between atoms: _197  and  _198
REMARK   76  A    between atoms: _197  and  _200
REMARK   77  A    between atoms: _200  and  _201
REMARK   78  A    between atoms: _201  and  _202
REMARK   79  A    between atoms: _202  and  _203
REMARK   80  A    between atoms: _203  and  _204
REMARK   81  A    between atoms: _208  and  _210
REMARK   82  A    between atoms: _210  and  _211
REMARK   83  A    between atoms: _210  and  _213
REMARK   84  A    between atoms: _213  and  _214
REMARK   85  A    between atoms: _214  and  _215
REMARK   86  A    between atoms: _215  and  _216
REMARK   87  A    between atoms: _225  and  _227
REMARK   88  A    between atoms: _227  and  _228
REMARK   89  A    between atoms: _227  and  _230
REMARK   90  A    between atoms: _230  and  _231
REMARK   91  A    between atoms: _231  and  _232
REMARK   92  A    between atoms: _235  and  _237
REMARK   93  A    between atoms: _237  and  _238
REMARK   94  A    between atoms: _237  and  _240
REMARK   95  A    between atoms: _240  and  _241
REMARK   96  A    between atoms: _246  and  _248
REMARK   97  A    between atoms: _248  and  _249
REMARK   98  A    between atoms: _248  and  _251
REMARK   99  A    between atoms: _251  and  _252
REMARK  100  A    between atoms: _255  and  _257
REMARK  101  A    between atoms: _257  and  _258
REMARK  102  A    between atoms: _257  and  _260
REMARK  103  A    between atoms: _260  and  _261
REMARK  104  A    between atoms: _264  and  _266
REMARK  105  A    between atoms: _266  and  _267
REMARK  106  A    between atoms: _266  and  _269
REMARK  107  A    between atoms: _269  and  _270
REMARK  108  A    between atoms: _275  and  _277
REMARK  109  A    between atoms: _277  and  _278
REMARK  110  A    between atoms: _277  and  _280
REMARK  111  A    between atoms: _280  and  _281
REMARK  112  A    between atoms: _284  and  _286
REMARK  113  A    between atoms: _286  and  _287
REMARK  114  A    between atoms: _286  and  _289
REMARK  115  A    between atoms: _289  and  _290
REMARK  116  A    between atoms: _295  and  _297
REMARK  117  A    between atoms: _297  and  _298
REMARK  118  A    between atoms: _297  and  _300
REMARK  119  A    between atoms: _300  and  _301
REMARK  120  A    between atoms: _306  and  _308
REMARK  121  A    between atoms: _308  and  _309
REMARK  122  A    between atoms: _308  and  _311
REMARK  123  A    between atoms: _311  and  _312
REMARK  124  A    between atoms: _315  and  _317
REMARK  125  A    between atoms: _317  and  _318
REMARK  126  A    between atoms: _317  and  _320
REMARK  127  A    between atoms: _323  and  _325
REMARK  128  A    between atoms: _325  and  _326
REMARK  129  A    between atoms: _325  and  _328
REMARK  130  A    between atoms: _328  and  _329
REMARK  131  A    between atoms: _333  and  _334
REMARK  132  A    between atoms: _339  and  _341
REMARK  133  A    between atoms: _341  and  _342
REMARK  134  A    between atoms: _341  and  _344
REMARK  135  A    between atoms: _344  and  _345
REMARK  136  A    between atoms: _345  and  _346
REMARK  137  A    between atoms: _349  and  _351
REMARK  138  A    between atoms: _351  and  _352
REMARK  139  A    between atoms: _355  and  _357
REMARK  140  A    between atoms: _357  and  _358
REMARK  141  A    between atoms: _357  and  _360
REMARK  142  A    between atoms: _360  and  _361
REMARK  143  A    between atoms: _364  and  _366
REMARK  144  A    between atoms: _366  and  _367
REMARK  145  A    between atoms: _366  and  _369
REMARK  146  A    between atoms: _369  and  _370
REMARK  147  A    between atoms: _370  and  _371
REMARK  148  A    between atoms: _374  and  _376
REMARK  149  A    between atoms: _376  and  _377
REMARK  150  A    between atoms: _376  and  _379
REMARK  151  A    between atoms: _379  and  _380
REMARK  152  A    between atoms: _385  and  _387
REMARK  153  A    between atoms: _387  and  _388
REMARK  154  A    between atoms: _390  and  _392
REMARK  155  A    between atoms: _392  and  _393
REMARK  156  A    between atoms: _392  and  _395
REMARK  157  A    between atoms: _398  and  _400
REMARK  158  A    between atoms: _400  and  _401
REMARK  159  A    between atoms: _404  and  _406
REMARK  160  A    between atoms: _406  and  _407
REMARK  161  A    between atoms: _406  and  _409
REMARK  162  A    between atoms: _409  and  _410
REMARK  163  A    between atoms: _415  and  _417
REMARK  164  A    between atoms: _417  and  _418
REMARK  165  A    between atoms: _417  and  _420
REMARK  166  A    between atoms: _420  and  _421
REMARK  167  A    between atoms: _421  and  _422
REMARK  168  A    between atoms: _422  and  _423
REMARK  169  A    between atoms: _423  and  _424
REMARK  170  A    between atoms: _428  and  _430
REMARK  171  A    between atoms: _430  and  _431
REMARK  172  A    between atoms: _430  and  _433
REMARK  173  A    between atoms: _433  and  _434
REMARK  174  A    between atoms: _437  and  _439
REMARK  175  A    between atoms: _439  and  _440
REMARK  176  A    between atoms: _439  and  _442
REMARK  177  A    between atoms: _442  and  _443
REMARK  178  A    between atoms: _448  and  _450
REMARK  179  A    between atoms: _450  and  _451
REMARK  180  A    between atoms: _453  and  _455
REMARK  181  A    between atoms: _455  and  _456
REMARK  182  A    between atoms: _455  and  _458
REMARK  183  A    between atoms: _458  and  _459
REMARK  184  A    between atoms: _459  and  _460
REMARK  185  A    between atoms: _460  and  _461
REMARK  186  A    between atoms: _461  and  _462
REMARK  187  A    between atoms: _466  and  _468
REMARK  188  A    between atoms: _468  and  _469
REMARK  189  A    between atoms: _468  and  _471
REMARK  190  A    between atoms: _471  and  _472
REMARK  191  A    between atoms: _472  and  _473
REMARK  192  A    between atoms: _473  and  _474
REMARK  193  A    between atoms: _483  and  _485
REMARK  194  A    between atoms: _485  and  _486
REMARK  195  A    between atoms: _485  and  _488
REMARK  196  A    between atoms: _488  and  _489
REMARK  197  A    between atoms: _494  and  _496
REMARK  198  A    between atoms: _496  and  _497
REMARK  199  A    between atoms: _496  and  _499
REMARK  200  A    between atoms: _499  and  _500
REMARK  201  A    between atoms: _505  and  _506
REMARK  202  A    between atoms: _508  and  _510
REMARK  203  A    between atoms: _510  and  _511
REMARK  204  A    between atoms: _510  and  _513
REMARK  205  A    between atoms: _513  and  _514
REMARK  206  A    between atoms: _514  and  _515
REMARK  207  A    between atoms: _515  and  _516
REMARK  208  A    between atoms: _516  and  _517
REMARK  209  A    between atoms: _521  and  _523
REMARK  210  A    between atoms: _523  and  _524
REMARK  211  A    between atoms: _523  and  _526
REMARK  212  A    between atoms: _526  and  _527
REMARK  213  A    between atoms: _529  and  _531
REMARK  214  A    between atoms: _531  and  _532
REMARK  215  A    between atoms: _531  and  _534
REMARK  216  A    between atoms: _534  and  _535
REMARK  217  A    between atoms: _538  and  _540
REMARK  218  A    between atoms: _540  and  _541
REMARK  219  A    between atoms: _540  and  _543
REMARK  220  A    between atoms: _543  and  _544
REMARK  221  A    between atoms: _544  and  _545
REMARK  222  A    between atoms: _548  and  _550
REMARK  223  A    between atoms: _550  and  _551
REMARK  224  A    between atoms: _554  and  _556
REMARK  225  A    between atoms: _556  and  _557
REMARK  226  A    between atoms: _556  and  _559
REMARK  227  A    between atoms: _559  and  _560
REMARK  228  A    between atoms: _562  and  _564
REMARK  229  A    between atoms: _564  and  _565
REMARK  230  A    between atoms: _567  and  _569
REMARK  231  A    between atoms: _569  and  _570
REMARK  232  A    between atoms: _569  and  _572
REMARK  233  A    between atoms: _572  and  _573
REMARK  234  A    between atoms: _576  and  _578
REMARK  235  A    between atoms: _578  and  _579
REMARK  236  A    between atoms: _581  and  _583
REMARK  237  A    between atoms: _583  and  _584
REMARK  238  A    between atoms: _583  and  _586
REMARK  239  A    between atoms: _586  and  _587
REMARK  240  A    between atoms: _592  and  _594
REMARK  241  A    between atoms: _594  and  _595
REMARK  242  A    between atoms: _594  and  _597
REMARK  243  A    between atoms: _597  and  _598
REMARK  244  A    between atoms: _598  and  _599
REMARK  245  A    between atoms: _606  and  _607
REMARK  246  A    between atoms: _607  and  _623
REMARK  247  A    between atoms: _608  and  _610
REMARK  248  A    between atoms: _610  and  _611
REMARK  249  A    between atoms: _611  and  _612
REMARK  250  A    between atoms: _616  and  _618
REMARK  251  A    between atoms: _618  and  _619
REMARK  252  A    between atoms: _618  and  _626
REMARK  253  A    between atoms: _619  and  _620
REMARK  254  A    between atoms: _620  and  _621
REMARK  255  A    between atoms: _621  and  _622
REMARK  256  A    between atoms: _622  and  _623
REMARK  257  A    between atoms: _628  and  _630
REMARK  258  A    between atoms: _630  and  _631
REMARK  259  A    between atoms: _630  and  _633
REMARK  260  A    between atoms: _633  and  _634
REMARK  261  A    between atoms: _637  and  _639
REMARK  262  A    between atoms: _639  and  _640
REMARK  263  A    between atoms: _642  and  _644
REMARK  264  A    between atoms: _644  and  _645
REMARK  265  A    between atoms: _648  and  _650
REMARK  266  A    between atoms: _650  and  _651
REMARK  267  A    between atoms: _650  and  _653
REMARK  268  A    between atoms: _653  and  _654
REMARK  269  A    between atoms: _659  and  _660
REMARK                            x       y       z     vdW  Elec       q    Type
REMARK                         _______ _______ _______ _____ _____    ______ ____
ROOT
ATOM      1  O   HOH     1      39.201  34.908  34.599  0.00  0.00    +0.000 OA
ENDROOT
TORSDOF 0
REMARK  Name = ../refined-set-2016/2pyi/2pyi_pocket.pdb
REMARK  269 active torsions:
REMARK  status: ('A' for Active; 'I' for Inactive)
REMARK    1  A    between atoms: _1  and  _3
REMARK    2  A    between atoms: _3  and  _4
REMARK    3  A    between atoms: _3  and  _6
REMARK    4  A    between atoms: _6  and  _7
REMARK    5  A    between atoms: _12  and  _13
REMARK    6  A    between atoms: _15  and  _17
REMARK    7  A    between atoms: _17  and  _18
REMARK    8  A    between atoms: _17  and  _20
REMARK    9  A    between atoms: _20  and  _21
REMARK   10  A    between atoms: _21  and  _22
REMARK   11  A    between atoms: _25  and  _27
REMARK   12  A    between atoms: _27  and  _28
REMARK   13  A    between atoms: _27  and  _30
REMARK   14  A    between atoms: _30  and  _31
REMARK   15  A    between atoms: _36  and  _38
REMARK   16  A    between atoms: _38  and  _39
REMARK   17  A    between atoms: _41  and  _43
REMARK   18  A    between atoms: _43  and  _44
REMARK   19  A    between atoms: _46  and  _48
REMARK   20  A    between atoms: _48  and  _49
REMARK   21  A    between atoms: _48  and  _51
REMARK   22  A    between atoms: _51  and  _52
REMARK   23  A    between atoms: _55  and  _57
REMARK   24  A    between atoms: _57  and  _58
REMARK   25  A    between atoms: _60  and  _62
REMARK   26  A    between atoms: _62  and  _63
REMARK   27  A    between atoms: _62  and  _65
REMARK   28  A    between atoms: _65  and  _66
REMARK   29  A    between atoms: _66  and  _67
REMARK   30  A    between atoms: _67  and  _68
REMARK   31  A    between atoms: _77  and  _79
REMARK   32  A    between atoms: _79  and  _80
REMARK   33  A    between atoms: _79  and  _82
REMARK   34  A    between atoms: _82  and  _83
REMARK   35  A    between atoms: _86  and  _88
REMARK   36  A    between atoms: _88  and  _89
REMARK   37  A    between atoms: _92  and  _94
REMARK   38  A    between atoms: _94  and  _95
REMARK   39  A    between atoms: _94  and  _97
REMARK   40  A    between atoms: _97  and  _98
REMARK   41  A    between atoms: _104  and  _106
REMARK   42  A    between atoms: _106  and  _107
REMARK   43  A    between atoms: _106  and  _109
REMARK   44  A    between atoms: _109  and  _110
REMARK   45  A    between atoms: _115  and  _116
REMARK   46  A    between atoms: _119  and  _120
REMARK   47  A    between atoms: _125  and  _127
REMARK   48  A    between atoms: _127  and  _128
REMARK   49  A    between atoms: _127  and  _130
REMARK   50  A    between atoms: _130  and  _131
REMARK   51  A    between atoms: _136  and  _138
REMARK   52  A    between atoms: _138  and  _139
REMARK   53  A    between atoms: _138  and  _141
REMARK   54  A    between atoms: _141  and  _142
REMARK   55  A    between atoms: _145  and  _147
REMARK   56  A    between atoms: _147  and  _148
REMARK   57  A    between atoms: _147  and  _150
REMARK   58  A    between atoms: _150  and  _151
REMARK   59  A    between atoms: _156  and  _158
REMARK   60  A    between atoms: _158  and  _159
REMARK   61  A    between atoms: _158  and  _161
REMARK   62  A    between atoms: _161  and  _162
REMARK   63  A    between atoms: _168  and  _170
REMARK   64  A    between atoms: _170  and  _171
REMARK   65  A    between atoms: _170  and  _173
REMARK   66  A    between atoms: _173  and  _174
REMARK   67  A    between atoms: _180  and  _182
REMARK   68  A    between atoms: _182  and  _183
REMARK   69  A    between atoms: _182  and  _185
REMARK   70  A    between atoms: _185  and  _186
REMARK   71  A    between atoms: _186  and  _187
REMARK   72  A    between atoms: _190  and  _192
REMARK   73  A    between atoms: _192  and  _193
REMARK   74  A    between atoms: _195  and  _197
REMARK   75  A    between atoms: _197  and  _198
REMARK   76  A    between atoms: _197  and  _200
REMARK   77  A    between atoms: _200  and  _201
REMARK   78  A    between atoms: _201  and  _202
REMARK   79  A    between atoms: _202  and  _203
REMARK   80  A    between atoms: _203  and  _204
REMARK   81  A    between atoms: _208  and  _210
REMARK   82  A    between atoms: _210  and  _211
REMARK   83  A    between atoms: _210  and  _213
REMARK   84  A    between atoms: _213  and  _214
REMARK   85  A    between atoms: _214  and  _215
REMARK   86  A    between atoms: _215  and  _216
REMARK   87  A    between atoms: _225  and  _227
REMARK   88  A    between atoms: _227  and  _228
REMARK   89  A    between atoms: _227  and  _230
REMARK   90  A    between atoms: _230  and  _231
REMARK   91  A    between atoms: _231  and  _232
REMARK   92  A    between atoms: _235  and  _237
REMARK   93  A    between atoms: _237  and  _238
REMARK   94  A    between atoms: _237  and  _240
REMARK   95  A    between atoms: _240  and  _241
REMARK   96  A    between atoms: _246  and  _248
REMARK   97  A    between atoms: _248  and  _249
REMARK   98  A    between atoms: _248  and  _251
REMARK   99  A    between atoms: _251  and  _252
REMARK  100  A    between atoms: _255  and  _257
REMARK  101  A    between atoms: _257  and  _258
REMARK  102  A    between atoms: _257  and  _260
REMARK  103  A    between atoms: _260  and  _261
REMARK  104  A    between atoms: _264  and  _266
REMARK  105  A    between atoms: _266  and  _267
REMARK  106  A    between atoms: _266  and  _269
REMARK  107  A    between atoms: _269  and  _270
REMARK  108  A    between atoms: _275  and  _277
REMARK  109  A    between atoms: _277  and  _278
REMARK  110  A    between atoms: _277  and  _280
REMARK  111  A    between atoms: _280  and  _281
REMARK  112  A    between atoms: _284  and  _286
REMARK  113  A    between atoms: _286  and  _287
REMARK  114  A    between atoms: _286  and  _289
REMARK  115  A    between atoms: _289  and  _290
REMARK  116  A    between atoms: _295  and  _297
REMARK  117  A    between atoms: _297  and  _298
REMARK  118  A    between atoms: _297  and  _300
REMARK  119  A    between atoms: _300  and  _301
REMARK  120  A    between atoms: _306  and  _308
REMARK  121  A    between atoms: _308  and  _309
REMARK  122  A    between atoms: _308  and  _311
REMARK  123  A    between atoms: _311  and  _312
REMARK  124  A    between atoms: _315  and  _317
REMARK  125  A    between atoms: _317  and  _318
REMARK  126  A    between atoms: _317  and  _320
REMARK  127  A    between atoms: _323  and  _325
REMARK  128  A    between atoms: _325  and  _326
REMARK  129  A    between atoms: _325  and  _328
REMARK  130  A    between atoms: _328  and  _329
REMARK  131  A    between atoms: _333  and  _334
REMARK  132  A    between atoms: _339  and  _341
REMARK  133  A    between atoms: _341  and  _342
REMARK  134  A    between atoms: _341  and  _344
REMARK  135  A    between atoms: _344  and  _345
REMARK  136  A    between atoms: _345  and  _346
REMARK  137  A    between atoms: _349  and  _351
REMARK  138  A    between atoms: _351  and  _352
REMARK  139  A    between atoms: _355  and  _357
REMARK  140  A    between atoms: _357  and  _358
REMARK  141  A    between atoms: _357  and  _360
REMARK  142  A    between atoms: _360  and  _361
REMARK  143  A    between atoms: _364  and  _366
REMARK  144  A    between atoms: _366  and  _367
REMARK  145  A    between atoms: _366  and  _369
REMARK  146  A    between atoms: _369  and  _370
REMARK  147  A    between atoms: _370  and  _371
REMARK  148  A    between atoms: _374  and  _376
REMARK  149  A    between atoms: _376  and  _377
REMARK  150  A    between atoms: _376  and  _379
REMARK  151  A    between atoms: _379  and  _380
REMARK  152  A    between atoms: _385  and  _387
REMARK  153  A    between atoms: _387  and  _388
REMARK  154  A    between atoms: _390  and  _392
REMARK  155  A    between atoms: _392  and  _393
REMARK  156  A    between atoms: _392  and  _395
REMARK  157  A    between atoms: _398  and  _400
REMARK  158  A    between atoms: _400  and  _401
REMARK  159  A    between atoms: _404  and  _406
REMARK  160  A    between atoms: _406  and  _407
REMARK  161  A    between atoms: _406  and  _409
REMARK  162  A    between atoms: _409  and  _410
REMARK  163  A    between atoms: _415  and  _417
REMARK  164  A    between atoms: _417  and  _418
REMARK  165  A    between atoms: _417  and  _420
REMARK  166  A    between atoms: _420  and  _421
REMARK  167  A    between atoms: _421  and  _422
REMARK  168  A    between atoms: _422  and  _423
REMARK  169  A    between atoms: _423  and  _424
REMARK  170  A    between atoms: _428  and  _430
REMARK  171  A    between atoms: _430  and  _431
REMARK  172  A    between atoms: _430  and  _433
REMARK  173  A    between atoms: _433  and  _434
REMARK  174  A    between atoms: _437  and  _439
REMARK  175  A    between atoms: _439  and  _440
REMARK  176  A    between atoms: _439  and  _442
REMARK  177  A    between atoms: _442  and  _443
REMARK  178  A    between atoms: _448  and  _450
REMARK  179  A    between atoms: _450  and  _451
REMARK  180  A    between atoms: _453  and  _455
REMARK  181  A    between atoms: _455  and  _456
REMARK  182  A    between atoms: _455  and  _458
REMARK  183  A    between atoms: _458  and  _459
REMARK  184  A    between atoms: _459  and  _460
REMARK  185  A    between atoms: _460  and  _461
REMARK  186  A    between atoms: _461  and  _462
REMARK  187  A    between atoms: _466  and  _468
REMARK  188  A    between atoms: _468  and  _469
REMARK  189  A    between atoms: _468  and  _471
REMARK  190  A    between atoms: _471  and  _472
REMARK  191  A    between atoms: _472  and  _473
REMARK  192  A    between atoms: _473  and  _474
REMARK  193  A    between atoms: _483  and  _485
REMARK  194  A    between atoms: _485  and  _486
REMARK  195  A    between atoms: _485  and  _488
REMARK  196  A    between atoms: _488  and  _489
REMARK  197  A    between atoms: _494  and  _496
REMARK  198  A    between atoms: _496  and  _497
REMARK  199  A    between atoms: _496  and  _499
REMARK  200  A    between atoms: _499  and  _500
REMARK  201  A    between atoms: _505  and  _506
REMARK  202  A    between atoms: _508  and  _510
REMARK  203  A    between atoms: _510  and  _511
REMARK  204  A    between atoms: _510  and  _513
REMARK  205  A    between atoms: _513  and  _514
REMARK  206  A    between atoms: _514  and  _515
REMARK  207  A    between atoms: _515  and  _516
REMARK  208  A    between atoms: _516  and  _517
REMARK  209  A    between atoms: _521  and  _523
REMARK  210  A    between atoms: _523  and  _524
REMARK  211  A    between atoms: _523  and  _526
REMARK  212  A    between atoms: _526  and  _527
REMARK  213  A    between atoms: _529  and  _531
REMARK  214  A    between atoms: _531  and  _532
REMARK  215  A    between atoms: _531  and  _534
REMARK  216  A    between atoms: _534  and  _535
REMARK  217  A    between atoms: _538  and  _540
REMARK  218  A    between atoms: _540  and  _541
REMARK  219  A    between atoms: _540  and  _543
REMARK  220  A    between atoms: _543  and  _544
REMARK  221  A    between atoms: _544  and  _545
REMARK  222  A    between atoms: _548  and  _550
REMARK  223  A    between atoms: _550  and  _551
REMARK  224  A    between atoms: _554  and  _556
REMARK  225  A    between atoms: _556  and  _557
REMARK  226  A    between atoms: _556  and  _559
REMARK  227  A    between atoms: _559  and  _560
REMARK  228  A    between atoms: _562  and  _564
REMARK  229  A    between atoms: _564  and  _565
REMARK  230  A    between atoms: _567  and  _569
REMARK  231  A    between atoms: _569  and  _570
REMARK  232  A    between atoms: _569  and  _572
REMARK  233  A    between atoms: _572  and  _573
REMARK  234  A    between atoms: _576  and  _578
REMARK  235  A    between atoms: _578  and  _579
REMARK  236  A    between atoms: _581  and  _583
REMARK  237  A    between atoms: _583  and  _584
REMARK  238  A    between atoms: _583  and  _586
REMARK  239  A    between atoms: _586  and  _587
REMARK  240  A    between atoms: _592  and  _594
REMARK  241  A    between atoms: _594  and  _595
REMARK  242  A    between atoms: _594  and  _597
REMARK  243  A    between atoms: _597  and  _598
REMARK  244  A    between atoms: _598  and  _599
REMARK  245  A    between atoms: _606  and  _607
REMARK  246  A    between atoms: _607  and  _623
REMARK  247  A    between atoms: _608  and  _610
REMARK  248  A    between atoms: _610  and  _611
REMARK  249  A    between atoms: _611  and  _612
REMARK  250  A    between atoms: _616  and  _618
REMARK  251  A    between atoms: _618  and  _619
REMARK  252  A    between atoms: _618  and  _626
REMARK  253  A    between atoms: _619  and  _620
REMARK  254  A    between atoms: _620  and  _621
REMARK  255  A    between atoms: _621  and  _622
REMARK  256  A    between atoms: _622  and  _623
REMARK  257  A    between atoms: _628  and  _630
REMARK  258  A    between atoms: _630  and  _631
REMARK  259  A    between atoms: _630  and  _633
REMARK  260  A    between atoms: _633  and  _634
REMARK  261  A    between atoms: _637  and  _639
REMARK  262  A    between atoms: _639  and  _640
REMARK  263  A    between atoms: _642  and  _644
REMARK  264  A    between atoms: _644  and  _645
REMARK  265  A    between atoms: _648  and  _650
REMARK  266  A    between atoms: _650  and  _651
REMARK  267  A    between atoms: _650  and  _653
REMARK  268  A    between atoms: _653  and  _654
REMARK  269  A    between atoms: _659  and  _660
REMARK                            x       y       z     vdW  Elec       q    Type
REMARK                         _______ _______ _______ _____ _____    ______ ____
ROOT
ATOM      1  O   HOH     1      39.849  23.196  30.174  0.00  0.00    +0.000 OA
ENDROOT
TORSDOF 0
REMARK  Name = ../refined-set-2016/2pyi/2pyi_pocket.pdb
REMARK  269 active torsions:
REMARK  status: ('A' for Active; 'I' for Inactive)
REMARK    1  A    between atoms: _1  and  _3
REMARK    2  A    between atoms: _3  and  _4
REMARK    3  A    between atoms: _3  and  _6
REMARK    4  A    between atoms: _6  and  _7
REMARK    5  A    between atoms: _12  and  _13
REMARK    6  A    between atoms: _15  and  _17
REMARK    7  A    between atoms: _17  and  _18
REMARK    8  A    between atoms: _17  and  _20
REMARK    9  A    between atoms: _20  and  _21
REMARK   10  A    between atoms: _21  and  _22
REMARK   11  A    between atoms: _25  and  _27
REMARK   12  A    between atoms: _27  and  _28
REMARK   13  A    between atoms: _27  and  _30
REMARK   14  A    between atoms: _30  and  _31
REMARK   15  A    between atoms: _36  and  _38
REMARK   16  A    between atoms: _38  and  _39
REMARK   17  A    between atoms: _41  and  _43
REMARK   18  A    between atoms: _43  and  _44
REMARK   19  A    between atoms: _46  and  _48
REMARK   20  A    between atoms: _48  and  _49
REMARK   21  A    between atoms: _48  and  _51
REMARK   22  A    between atoms: _51  and  _52
REMARK   23  A    between atoms: _55  and  _57
REMARK   24  A    between atoms: _57  and  _58
REMARK   25  A    between atoms: _60  and  _62
REMARK   26  A    between atoms: _62  and  _63
REMARK   27  A    between atoms: _62  and  _65
REMARK   28  A    between atoms: _65  and  _66
REMARK   29  A    between atoms: _66  and  _67
REMARK   30  A    between atoms: _67  and  _68
REMARK   31  A    between atoms: _77  and  _79
REMARK   32  A    between atoms: _79  and  _80
REMARK   33  A    between atoms: _79  and  _82
REMARK   34  A    between atoms: _82  and  _83
REMARK   35  A    between atoms: _86  and  _88
REMARK   36  A    between atoms: _88  and  _89
REMARK   37  A    between atoms: _92  and  _94
REMARK   38  A    between atoms: _94  and  _95
REMARK   39  A    between atoms: _94  and  _97
REMARK   40  A    between atoms: _97  and  _98
REMARK   41  A    between atoms: _104  and  _106
REMARK   42  A    between atoms: _106  and  _107
REMARK   43  A    between atoms: _106  and  _109
REMARK   44  A    between atoms: _109  and  _110
REMARK   45  A    between atoms: _115  and  _116
REMARK   46  A    between atoms: _119  and  _120
REMARK   47  A    between atoms: _125  and  _127
REMARK   48  A    between atoms: _127  and  _128
REMARK   49  A    between atoms: _127  and  _130
REMARK   50  A    between atoms: _130  and  _131
REMARK   51  A    between atoms: _136  and  _138
REMARK   52  A    between atoms: _138  and  _139
REMARK   53  A    between atoms: _138  and  _141
REMARK   54  A    between atoms: _141  and  _142
REMARK   55  A    between atoms: _145  and  _147
REMARK   56  A    between atoms: _147  and  _148
REMARK   57  A    between atoms: _147  and  _150
REMARK   58  A    between atoms: _150  and  _151
REMARK   59  A    between atoms: _156  and  _158
REMARK   60  A    between atoms: _158  and  _159
REMARK   61  A    between atoms: _158  and  _161
REMARK   62  A    between atoms: _161  and  _162
REMARK   63  A    between atoms: _168  and  _170
REMARK   64  A    between atoms: _170  and  _171
REMARK   65  A    between atoms: _170  and  _173
REMARK   66  A    between atoms: _173  and  _174
REMARK   67  A    between atoms: _180  and  _182
REMARK   68  A    between atoms: _182  and  _183
REMARK   69  A    between atoms: _182  and  _185
REMARK   70  A    between atoms: _185  and  _186
REMARK   71  A    between atoms: _186  and  _187
REMARK   72  A    between atoms: _190  and  _192
REMARK   73  A    between atoms: _192  and  _193
REMARK   74  A    between atoms: _195  and  _197
REMARK   75  A    between atoms: _197  and  _198
REMARK   76  A    between atoms: _197  and  _200
REMARK   77  A    between atoms: _200  and  _201
REMARK   78  A    between atoms: _201  and  _202
REMARK   79  A    between atoms: _202  and  _203
REMARK   80  A    between atoms: _203  and  _204
REMARK   81  A    between atoms: _208  and  _210
REMARK   82  A    between atoms: _210  and  _211
REMARK   83  A    between atoms: _210  and  _213
REMARK   84  A    between atoms: _213  and  _214
REMARK   85  A    between atoms: _214  and  _215
REMARK   86  A    between atoms: _215  and  _216
REMARK   87  A    between atoms: _225  and  _227
REMARK   88  A    between atoms: _227  and  _228
REMARK   89  A    between atoms: _227  and  _230
REMARK   90  A    between atoms: _230  and  _231
REMARK   91  A    between atoms: _231  and  _232
REMARK   92  A    between atoms: _235  and  _237
REMARK   93  A    between atoms: _237  and  _238
REMARK   94  A    between atoms: _237  and  _240
REMARK   95  A    between atoms: _240  and  _241
REMARK   96  A    between atoms: _246  and  _248
REMARK   97  A    between atoms: _248  and  _249
REMARK   98  A    between atoms: _248  and  _251
REMARK   99  A    between atoms: _251  and  _252
REMARK  100  A    between atoms: _255  and  _257
REMARK  101  A    between atoms: _257  and  _258
REMARK  102  A    between atoms: _257  and  _260
REMARK  103  A    between atoms: _260  and  _261
REMARK  104  A    between atoms: _264  and  _266
REMARK  105  A    between atoms: _266  and  _267
REMARK  106  A    between atoms: _266  and  _269
REMARK  107  A    between atoms: _269  and  _270
REMARK  108  A    between atoms: _275  and  _277
REMARK  109  A    between atoms: _277  and  _278
REMARK  110  A    between atoms: _277  and  _280
REMARK  111  A    between atoms: _280  and  _281
REMARK  112  A    between atoms: _284  and  _286
REMARK  113  A    between atoms: _286  and  _287
REMARK  114  A    between atoms: _286  and  _289
REMARK  115  A    between atoms: _289  and  _290
REMARK  116  A    between atoms: _295  and  _297
REMARK  117  A    between atoms: _297  and  _298
REMARK  118  A    between atoms: _297  and  _300
REMARK  119  A    between atoms: _300  and  _301
REMARK  120  A    between atoms: _306  and  _308
REMARK  121  A    between atoms: _308  and  _309
REMARK  122  A    between atoms: _308  and  _311
REMARK  123  A    between atoms: _311  and  _312
REMARK  124  A    between atoms: _315  and  _317
REMARK  125  A    between atoms: _317  and  _318
REMARK  126  A    between atoms: _317  and  _320
REMARK  127  A    between atoms: _323  and  _325
REMARK  128  A    between atoms: _325  and  _326
REMARK  129  A    between atoms: _325  and  _328
REMARK  130  A    between atoms: _328  and  _329
REMARK  131  A    between atoms: _333  and  _334
REMARK  132  A    between atoms: _339  and  _341
REMARK  133  A    between atoms: _341  and  _342
REMARK  134  A    between atoms: _341  and  _344
REMARK  135  A    between atoms: _344  and  _345
REMARK  136  A    between atoms: _345  and  _346
REMARK  137  A    between atoms: _349  and  _351
REMARK  138  A    between atoms: _351  and  _352
REMARK  139  A    between atoms: _355  and  _357
REMARK  140  A    between atoms: _357  and  _358
REMARK  141  A    between atoms: _357  and  _360
REMARK  142  A    between atoms: _360  and  _361
REMARK  143  A    between atoms: _364  and  _366
REMARK  144  A    between atoms: _366  and  _367
REMARK  145  A    between atoms: _366  and  _369
REMARK  146  A    between atoms: _369  and  _370
REMARK  147  A    between atoms: _370  and  _371
REMARK  148  A    between atoms: _374  and  _376
REMARK  149  A    between atoms: _376  and  _377
REMARK  150  A    between atoms: _376  and  _379
REMARK  151  A    between atoms: _379  and  _380
REMARK  152  A    between atoms: _385  and  _387
REMARK  153  A    between atoms: _387  and  _388
REMARK  154  A    between atoms: _390  and  _392
REMARK  155  A    between atoms: _392  and  _393
REMARK  156  A    between atoms: _392  and  _395
REMARK  157  A    between atoms: _398  and  _400
REMARK  158  A    between atoms: _400  and  _401
REMARK  159  A    between atoms: _404  and  _406
REMARK  160  A    between atoms: _406  and  _407
REMARK  161  A    between atoms: _406  and  _409
REMARK  162  A    between atoms: _409  and  _410
REMARK  163  A    between atoms: _415  and  _417
REMARK  164  A    between atoms: _417  and  _418
REMARK  165  A    between atoms: _417  and  _420
REMARK  166  A    between atoms: _420  and  _421
REMARK  167  A    between atoms: _421  and  _422
REMARK  168  A    between atoms: _422  and  _423
REMARK  169  A    between atoms: _423  and  _424
REMARK  170  A    between atoms: _428  and  _430
REMARK  171  A    between atoms: _430  and  _431
REMARK  172  A    between atoms: _430  and  _433
REMARK  173  A    between atoms: _433  and  _434
REMARK  174  A    between atoms: _437  and  _439
REMARK  175  A    between atoms: _439  and  _440
REMARK  176  A    between atoms: _439  and  _442
REMARK  177  A    between atoms: _442  and  _443
REMARK  178  A    between atoms: _448  and  _450
REMARK  179  A    between atoms: _450  and  _451
REMARK  180  A    between atoms: _453  and  _455
REMARK  181  A    between atoms: _455  and  _456
REMARK  182  A    between atoms: _455  and  _458
REMARK  183  A    between atoms: _458  and  _459
REMARK  184  A    between atoms: _459  and  _460
REMARK  185  A    between atoms: _460  and  _461
REMARK  186  A    between atoms: _461  and  _462
REMARK  187  A    between atoms: _466  and  _468
REMARK  188  A    between atoms: _468  and  _469
REMARK  189  A    between atoms: _468  and  _471
REMARK  190  A    between atoms: _471  and  _472
REMARK  191  A    between atoms: _472  and  _473
REMARK  192  A    between atoms: _473  and  _474
REMARK  193  A    between atoms: _483  and  _485
REMARK  194  A    between atoms: _485  and  _486
REMARK  195  A    between atoms: _485  and  _488
REMARK  196  A    between atoms: _488  and  _489
REMARK  197  A    between atoms: _494  and  _496
REMARK  198  A    between atoms: _496  and  _497
REMARK  199  A    between atoms: _496  and  _499
REMARK  200  A    between atoms: _499  and  _500
REMARK  201  A    between atoms: _505  and  _506
REMARK  202  A    between atoms: _508  and  _510
REMARK  203  A    between atoms: _510  and  _511
REMARK  204  A    between atoms: _510  and  _513
REMARK  205  A    between atoms: _513  and  _514
REMARK  206  A    between atoms: _514  and  _515
REMARK  207  A    between atoms: _515  and  _516
REMARK  208  A    between atoms: _516  and  _517
REMARK  209  A    between atoms: _521  and  _523
REMARK  210  A    between atoms: _523  and  _524
REMARK  211  A    between atoms: _523  and  _526
REMARK  212  A    between atoms: _526  and  _527
REMARK  213  A    between atoms: _529  and  _531
REMARK  214  A    between atoms: _531  and  _532
REMARK  215  A    between atoms: _531  and  _534
REMARK  216  A    between atoms: _534  and  _535
REMARK  217  A    between atoms: _538  and  _540
REMARK  218  A    between atoms: _540  and  _541
REMARK  219  A    between atoms: _540  and  _543
REMARK  220  A    between atoms: _543  and  _544
REMARK  221  A    between atoms: _544  and  _545
REMARK  222  A    between atoms: _548  and  _550
REMARK  223  A    between atoms: _550  and  _551
REMARK  224  A    between atoms: _554  and  _556
REMARK  225  A    between atoms: _556  and  _557
REMARK  226  A    between atoms: _556  and  _559
REMARK  227  A    between atoms: _559  and  _560
REMARK  228  A    between atoms: _562  and  _564
REMARK  229  A    between atoms: _564  and  _565
REMARK  230  A    between atoms: _567  and  _569
REMARK  231  A    between atoms: _569  and  _570
REMARK  232  A    between atoms: _569  and  _572
REMARK  233  A    between atoms: _572  and  _573
REMARK  234  A    between atoms: _576  and  _578
REMARK  235  A    between atoms: _578  and  _579
REMARK  236  A    between atoms: _581  and  _583
REMARK  237  A    between atoms: _583  and  _584
REMARK  238  A    between atoms: _583  and  _586
REMARK  239  A    between atoms: _586  and  _587
REMARK  240  A    between atoms: _592  and  _594
REMARK  241  A    between atoms: _594  and  _595
REMARK  242  A    between atoms: _594  and  _597
REMARK  243  A    between atoms: _597  and  _598
REMARK  244  A    between atoms: _598  and  _599
REMARK  245  A    between atoms: _606  and  _607
REMARK  246  A    between atoms: _607  and  _623
REMARK  247  A    between atoms: _608  and  _610
REMARK  248  A    between atoms: _610  and  _611
REMARK  249  A    between atoms: _611  and  _612
REMARK  250  A    between atoms: _616  and  _618
REMARK  251  A    between atoms: _618  and  _619
REMARK  252  A    between atoms: _618  and  _626
REMARK  253  A    between atoms: _619  and  _620
REMARK  254  A    between atoms: _620  and  _621
REMARK  255  A    between atoms: _621  and  _622
REMARK  256  A    between atoms: _622  and  _623
REMARK  257  A    between atoms: _628  and  _630
REMARK  258  A    between atoms: _630  and  _631
REMARK  259  A    between atoms: _630  and  _633
REMARK  260  A    between atoms: _633  and  _634
REMARK  261  A    between atoms: _637  and  _639
REMARK  262  A    between atoms: _639  and  _640
REMARK  263  A    between atoms: _642  and  _644
REMARK  264  A    between atoms: _644  and  _645
REMARK  265  A    between atoms: _648  and  _650
REMARK  266  A    between atoms: _650  and  _651
REMARK  267  A    between atoms: _650  and  _653
REMARK  268  A    between atoms: _653  and  _654
REMARK  269  A    between atoms: _659  and  _660
REMARK                            x       y       z     vdW  Elec       q    Type
REMARK                         _______ _______ _______ _____ _____    ______ ____
ROOT
ATOM      1  O   HOH     1      35.665  26.222  27.490  0.00  0.00    +0.000 OA
ENDROOT
TORSDOF 0
REMARK  Name = ../refined-set-2016/2pyi/2pyi_pocket.pdb
REMARK  269 active torsions:
REMARK  status: ('A' for Active; 'I' for Inactive)
REMARK    1  A    between atoms: _1  and  _3
REMARK    2  A    between atoms: _3  and  _4
REMARK    3  A    between atoms: _3  and  _6
REMARK    4  A    between atoms: _6  and  _7
REMARK    5  A    between atoms: _12  and  _13
REMARK    6  A    between atoms: _15  and  _17
REMARK    7  A    between atoms: _17  and  _18
REMARK    8  A    between atoms: _17  and  _20
REMARK    9  A    between atoms: _20  and  _21
REMARK   10  A    between atoms: _21  and  _22
REMARK   11  A    between atoms: _25  and  _27
REMARK   12  A    between atoms: _27  and  _28
REMARK   13  A    between atoms: _27  and  _30
REMARK   14  A    between atoms: _30  and  _31
REMARK   15  A    between atoms: _36  and  _38
REMARK   16  A    between atoms: _38  and  _39
REMARK   17  A    between atoms: _41  and  _43
REMARK   18  A    between atoms: _43  and  _44
REMARK   19  A    between atoms: _46  and  _48
REMARK   20  A    between atoms: _48  and  _49
REMARK   21  A    between atoms: _48  and  _51
REMARK   22  A    between atoms: _51  and  _52
REMARK   23  A    between atoms: _55  and  _57
REMARK   24  A    between atoms: _57  and  _58
REMARK   25  A    between atoms: _60  and  _62
REMARK   26  A    between atoms: _62  and  _63
REMARK   27  A    between atoms: _62  and  _65
REMARK   28  A    between atoms: _65  and  _66
REMARK   29  A    between atoms: _66  and  _67
REMARK   30  A    between atoms: _67  and  _68
REMARK   31  A    between atoms: _77  and  _79
REMARK   32  A    between atoms: _79  and  _80
REMARK   33  A    between atoms: _79  and  _82
REMARK   34  A    between atoms: _82  and  _83
REMARK   35  A    between atoms: _86  and  _88
REMARK   36  A    between atoms: _88  and  _89
REMARK   37  A    between atoms: _92  and  _94
REMARK   38  A    between atoms: _94  and  _95
REMARK   39  A    between atoms: _94  and  _97
REMARK   40  A    between atoms: _97  and  _98
REMARK   41  A    between atoms: _104  and  _106
REMARK   42  A    between atoms: _106  and  _107
REMARK   43  A    between atoms: _106  and  _109
REMARK   44  A    between atoms: _109  and  _110
REMARK   45  A    between atoms: _115  and  _116
REMARK   46  A    between atoms: _119  and  _120
REMARK   47  A    between atoms: _125  and  _127
REMARK   48  A    between atoms: _127  and  _128
REMARK   49  A    between atoms: _127  and  _130
REMARK   50  A    between atoms: _130  and  _131
REMARK   51  A    between atoms: _136  and  _138
REMARK   52  A    between atoms: _138  and  _139
REMARK   53  A    between atoms: _138  and  _141
REMARK   54  A    between atoms: _141  and  _142
REMARK   55  A    between atoms: _145  and  _147
REMARK   56  A    between atoms: _147  and  _148
REMARK   57  A    between atoms: _147  and  _150
REMARK   58  A    between atoms: _150  and  _151
REMARK   59  A    between atoms: _156  and  _158
REMARK   60  A    between atoms: _158  and  _159
REMARK   61  A    between atoms: _158  and  _161
REMARK   62  A    between atoms: _161  and  _162
REMARK   63  A    between atoms: _168  and  _170
REMARK   64  A    between atoms: _170  and  _171
REMARK   65  A    between atoms: _170  and  _173
REMARK   66  A    between atoms: _173  and  _174
REMARK   67  A    between atoms: _180  and  _182
REMARK   68  A    between atoms: _182  and  _183
REMARK   69  A    between atoms: _182  and  _185
REMARK   70  A    between atoms: _185  and  _186
REMARK   71  A    between atoms: _186  and  _187
REMARK   72  A    between atoms: _190  and  _192
REMARK   73  A    between atoms: _192  and  _193
REMARK   74  A    between atoms: _195  and  _197
REMARK   75  A    between atoms: _197  and  _198
REMARK   76  A    between atoms: _197  and  _200
REMARK   77  A    between atoms: _200  and  _201
REMARK   78  A    between atoms: _201  and  _202
REMARK   79  A    between atoms: _202  and  _203
REMARK   80  A    between atoms: _203  and  _204
REMARK   81  A    between atoms: _208  and  _210
REMARK   82  A    between atoms: _210  and  _211
REMARK   83  A    between atoms: _210  and  _213
REMARK   84  A    between atoms: _213  and  _214
REMARK   85  A    between atoms: _214  and  _215
REMARK   86  A    between atoms: _215  and  _216
REMARK   87  A    between atoms: _225  and  _227
REMARK   88  A    between atoms: _227  and  _228
REMARK   89  A    between atoms: _227  and  _230
REMARK   90  A    between atoms: _230  and  _231
REMARK   91  A    between atoms: _231  and  _232
REMARK   92  A    between atoms: _235  and  _237
REMARK   93  A    between atoms: _237  and  _238
REMARK   94  A    between atoms: _237  and  _240
REMARK   95  A    between atoms: _240  and  _241
REMARK   96  A    between atoms: _246  and  _248
REMARK   97  A    between atoms: _248  and  _249
REMARK   98  A    between atoms: _248  and  _251
REMARK   99  A    between atoms: _251  and  _252
REMARK  100  A    between atoms: _255  and  _257
REMARK  101  A    between atoms: _257  and  _258
REMARK  102  A    between atoms: _257  and  _260
REMARK  103  A    between atoms: _260  and  _261
REMARK  104  A    between atoms: _264  and  _266
REMARK  105  A    between atoms: _266  and  _267
REMARK  106  A    between atoms: _266  and  _269
REMARK  107  A    between atoms: _269  and  _270
REMARK  108  A    between atoms: _275  and  _277
REMARK  109  A    between atoms: _277  and  _278
REMARK  110  A    between atoms: _277  and  _280
REMARK  111  A    between atoms: _280  and  _281
REMARK  112  A    between atoms: _284  and  _286
REMARK  113  A    between atoms: _286  and  _287
REMARK  114  A    between atoms: _286  and  _289
REMARK  115  A    between atoms: _289  and  _290
REMARK  116  A    between atoms: _295  and  _297
REMARK  117  A    between atoms: _297  and  _298
REMARK  118  A    between atoms: _297  and  _300
REMARK  119  A    between atoms: _300  and  _301
REMARK  120  A    between atoms: _306  and  _308
REMARK  121  A    between atoms: _308  and  _309
REMARK  122  A    between atoms: _308  and  _311
REMARK  123  A    between atoms: _311  and  _312
REMARK  124  A    between atoms: _315  and  _317
REMARK  125  A    between atoms: _317  and  _318
REMARK  126  A    between atoms: _317  and  _320
REMARK  127  A    between atoms: _323  and  _325
REMARK  128  A    between atoms: _325  and  _326
REMARK  129  A    between atoms: _325  and  _328
REMARK  130  A    between atoms: _328  and  _329
REMARK  131  A    between atoms: _333  and  _334
REMARK  132  A    between atoms: _339  and  _341
REMARK  133  A    between atoms: _341  and  _342
REMARK  134  A    between atoms: _341  and  _344
REMARK  135  A    between atoms: _344  and  _345
REMARK  136  A    between atoms: _345  and  _346
REMARK  137  A    between atoms: _349  and  _351
REMARK  138  A    between atoms: _351  and  _352
REMARK  139  A    between atoms: _355  and  _357
REMARK  140  A    between atoms: _357  and  _358
REMARK  141  A    between atoms: _357  and  _360
REMARK  142  A    between atoms: _360  and  _361
REMARK  143  A    between atoms: _364  and  _366
REMARK  144  A    between atoms: _366  and  _367
REMARK  145  A    between atoms: _366  and  _369
REMARK  146  A    between atoms: _369  and  _370
REMARK  147  A    between atoms: _370  and  _371
REMARK  148  A    between atoms: _374  and  _376
REMARK  149  A    between atoms: _376  and  _377
REMARK  150  A    between atoms: _376  and  _379
REMARK  151  A    between atoms: _379  and  _380
REMARK  152  A    between atoms: _385  and  _387
REMARK  153  A    between atoms: _387  and  _388
REMARK  154  A    between atoms: _390  and  _392
REMARK  155  A    between atoms: _392  and  _393
REMARK  156  A    between atoms: _392  and  _395
REMARK  157  A    between atoms: _398  and  _400
REMARK  158  A    between atoms: _400  and  _401
REMARK  159  A    between atoms: _404  and  _406
REMARK  160  A    between atoms: _406  and  _407
REMARK  161  A    between atoms: _406  and  _409
REMARK  162  A    between atoms: _409  and  _410
REMARK  163  A    between atoms: _415  and  _417
REMARK  164  A    between atoms: _417  and  _418
REMARK  165  A    between atoms: _417  and  _420
REMARK  166  A    between atoms: _420  and  _421
REMARK  167  A    between atoms: _421  and  _422
REMARK  168  A    between atoms: _422  and  _423
REMARK  169  A    between atoms: _423  and  _424
REMARK  170  A    between atoms: _428  and  _430
REMARK  171  A    between atoms: _430  and  _431
REMARK  172  A    between atoms: _430  and  _433
REMARK  173  A    between atoms: _433  and  _434
REMARK  174  A    between atoms: _437  and  _439
REMARK  175  A    between atoms: _439  and  _440
REMARK  176  A    between atoms: _439  and  _442
REMARK  177  A    between atoms: _442  and  _443
REMARK  178  A    between atoms: _448  and  _450
REMARK  179  A    between atoms: _450  and  _451
REMARK  180  A    between atoms: _453  and  _455
REMARK  181  A    between atoms: _455  and  _456
REMARK  182  A    between atoms: _455  and  _458
REMARK  183  A    between atoms: _458  and  _459
REMARK  184  A    between atoms: _459  and  _460
REMARK  185  A    between atoms: _460  and  _461
REMARK  186  A    between atoms: _461  and  _462
REMARK  187  A    between atoms: _466  and  _468
REMARK  188  A    between atoms: _468  and  _469
REMARK  189  A    between atoms: _468  and  _471
REMARK  190  A    between atoms: _471  and  _472
REMARK  191  A    between atoms: _472  and  _473
REMARK  192  A    between atoms: _473  and  _474
REMARK  193  A    between atoms: _483  and  _485
REMARK  194  A    between atoms: _485  and  _486
REMARK  195  A    between atoms: _485  and  _488
REMARK  196  A    between atoms: _488  and  _489
REMARK  197  A    between atoms: _494  and  _496
REMARK  198  A    between atoms: _496  and  _497
REMARK  199  A    between atoms: _496  and  _499
REMARK  200  A    between atoms: _499  and  _500
REMARK  201  A    between atoms: _505  and  _506
REMARK  202  A    between atoms: _508  and  _510
REMARK  203  A    between atoms: _510  and  _511
REMARK  204  A    between atoms: _510  and  _513
REMARK  205  A    between atoms: _513  and  _514
REMARK  206  A    between atoms: _514  and  _515
REMARK  207  A    between atoms: _515  and  _516
REMARK  208  A    between atoms: _516  and  _517
REMARK  209  A    between atoms: _521  and  _523
REMARK  210  A    between atoms: _523  and  _524
REMARK  211  A    between atoms: _523  and  _526
REMARK  212  A    between atoms: _526  and  _527
REMARK  213  A    between atoms: _529  and  _531
REMARK  214  A    between atoms: _531  and  _532
REMARK  215  A    between atoms: _531  and  _534
REMARK  216  A    between atoms: _534  and  _535
REMARK  217  A    between atoms: _538  and  _540
REMARK  218  A    between atoms: _540  and  _541
REMARK  219  A    between atoms: _540  and  _543
REMARK  220  A    between atoms: _543  and  _544
REMARK  221  A    between atoms: _544  and  _545
REMARK  222  A    between atoms: _548  and  _550
REMARK  223  A    between atoms: _550  and  _551
REMARK  224  A    between atoms: _554  and  _556
REMARK  225  A    between atoms: _556  and  _557
REMARK  226  A    between atoms: _556  and  _559
REMARK  227  A    between atoms: _559  and  _560
REMARK  228  A    between atoms: _562  and  _564
REMARK  229  A    between atoms: _564  and  _565
REMARK  230  A    between atoms: _567  and  _569
REMARK  231  A    between atoms: _569  and  _570
REMARK  232  A    between atoms: _569  and  _572
REMARK  233  A    between atoms: _572  and  _573
REMARK  234  A    between atoms: _576  and  _578
REMARK  235  A    between atoms: _578  and  _579
REMARK  236  A    between atoms: _581  and  _583
REMARK  237  A    between atoms: _583  and  _584
REMARK  238  A    between atoms: _583  and  _586
REMARK  239  A    between atoms: _586  and  _587
REMARK  240  A    between atoms: _592  and  _594
REMARK  241  A    between atoms: _594  and  _595
REMARK  242  A    between atoms: _594  and  _597
REMARK  243  A    between atoms: _597  and  _598
REMARK  244  A    between atoms: _598  and  _599
REMARK  245  A    between atoms: _606  and  _607
REMARK  246  A    between atoms: _607  and  _623
REMARK  247  A    between atoms: _608  and  _610
REMARK  248  A    between atoms: _610  and  _611
REMARK  249  A    between atoms: _611  and  _612
REMARK  250  A    between atoms: _616  and  _618
REMARK  251  A    between atoms: _618  and  _619
REMARK  252  A    between atoms: _618  and  _626
REMARK  253  A    between atoms: _619  and  _620
REMARK  254  A    between atoms: _620  and  _621
REMARK  255  A    between atoms: _621  and  _622
REMARK  256  A    between atoms: _622  and  _623
REMARK  257  A    between atoms: _628  and  _630
REMARK  258  A    between atoms: _630  and  _631
REMARK  259  A    between atoms: _630  and  _633
REMARK  260  A    between atoms: _633  and  _634
REMARK  261  A    between atoms: _637  and  _639
REMARK  262  A    between atoms: _639  and  _640
REMARK  263  A    between atoms: _642  and  _644
REMARK  264  A    between atoms: _644  and  _645
REMARK  265  A    between atoms: _648  and  _650
REMARK  266  A    between atoms: _650  and  _651
REMARK  267  A    between atoms: _650  and  _653
REMARK  268  A    between atoms: _653  and  _654
REMARK  269  A    between atoms: _659  and  _660
REMARK                            x       y       z     vdW  Elec       q    Type
REMARK                         _______ _______ _______ _____ _____    ______ ____
ROOT
ATOM      1  O   HOH     1      36.208  33.999  32.012  0.00  0.00    +0.000 OA
ENDROOT
TORSDOF 0
REMARK  Name = ../refined-set-2016/2pyi/2pyi_pocket.pdb
REMARK  269 active torsions:
REMARK  status: ('A' for Active; 'I' for Inactive)
REMARK    1  A    between atoms: _1  and  _3
REMARK    2  A    between atoms: _3  and  _4
REMARK    3  A    between atoms: _3  and  _6
REMARK    4  A    between atoms: _6  and  _7
REMARK    5  A    between atoms: _12  and  _13
REMARK    6  A    between atoms: _15  and  _17
REMARK    7  A    between atoms: _17  and  _18
REMARK    8  A    between atoms: _17  and  _20
REMARK    9  A    between atoms: _20  and  _21
REMARK   10  A    between atoms: _21  and  _22
REMARK   11  A    between atoms: _25  and  _27
REMARK   12  A    between atoms: _27  and  _28
REMARK   13  A    between atoms: _27  and  _30
REMARK   14  A    between atoms: _30  and  _31
REMARK   15  A    between atoms: _36  and  _38
REMARK   16  A    between atoms: _38  and  _39
REMARK   17  A    between atoms: _41  and  _43
REMARK   18  A    between atoms: _43  and  _44
REMARK   19  A    between atoms: _46  and  _48
REMARK   20  A    between atoms: _48  and  _49
REMARK   21  A    between atoms: _48  and  _51
REMARK   22  A    between atoms: _51  and  _52
REMARK   23  A    between atoms: _55  and  _57
REMARK   24  A    between atoms: _57  and  _58
REMARK   25  A    between atoms: _60  and  _62
REMARK   26  A    between atoms: _62  and  _63
REMARK   27  A    between atoms: _62  and  _65
REMARK   28  A    between atoms: _65  and  _66
REMARK   29  A    between atoms: _66  and  _67
REMARK   30  A    between atoms: _67  and  _68
REMARK   31  A    between atoms: _77  and  _79
REMARK   32  A    between atoms: _79  and  _80
REMARK   33  A    between atoms: _79  and  _82
REMARK   34  A    between atoms: _82  and  _83
REMARK   35  A    between atoms: _86  and  _88
REMARK   36  A    between atoms: _88  and  _89
REMARK   37  A    between atoms: _92  and  _94
REMARK   38  A    between atoms: _94  and  _95
REMARK   39  A    between atoms: _94  and  _97
REMARK   40  A    between atoms: _97  and  _98
REMARK   41  A    between atoms: _104  and  _106
REMARK   42  A    between atoms: _106  and  _107
REMARK   43  A    between atoms: _106  and  _109
REMARK   44  A    between atoms: _109  and  _110
REMARK   45  A    between atoms: _115  and  _116
REMARK   46  A    between atoms: _119  and  _120
REMARK   47  A    between atoms: _125  and  _127
REMARK   48  A    between atoms: _127  and  _128
REMARK   49  A    between atoms: _127  and  _130
REMARK   50  A    between atoms: _130  and  _131
REMARK   51  A    between atoms: _136  and  _138
REMARK   52  A    between atoms: _138  and  _139
REMARK   53  A    between atoms: _138  and  _141
REMARK   54  A    between atoms: _141  and  _142
REMARK   55  A    between atoms: _145  and  _147
REMARK   56  A    between atoms: _147  and  _148
REMARK   57  A    between atoms: _147  and  _150
REMARK   58  A    between atoms: _150  and  _151
REMARK   59  A    between atoms: _156  and  _158
REMARK   60  A    between atoms: _158  and  _159
REMARK   61  A    between atoms: _158  and  _161
REMARK   62  A    between atoms: _161  and  _162
REMARK   63  A    between atoms: _168  and  _170
REMARK   64  A    between atoms: _170  and  _171
REMARK   65  A    between atoms: _170  and  _173
REMARK   66  A    between atoms: _173  and  _174
REMARK   67  A    between atoms: _180  and  _182
REMARK   68  A    between atoms: _182  and  _183
REMARK   69  A    between atoms: _182  and  _185
REMARK   70  A    between atoms: _185  and  _186
REMARK   71  A    between atoms: _186  and  _187
REMARK   72  A    between atoms: _190  and  _192
REMARK   73  A    between atoms: _192  and  _193
REMARK   74  A    between atoms: _195  and  _197
REMARK   75  A    between atoms: _197  and  _198
REMARK   76  A    between atoms: _197  and  _200
REMARK   77  A    between atoms: _200  and  _201
REMARK   78  A    between atoms: _201  and  _202
REMARK   79  A    between atoms: _202  and  _203
REMARK   80  A    between atoms: _203  and  _204
REMARK   81  A    between atoms: _208  and  _210
REMARK   82  A    between atoms: _210  and  _211
REMARK   83  A    between atoms: _210  and  _213
REMARK   84  A    between atoms: _213  and  _214
REMARK   85  A    between atoms: _214  and  _215
REMARK   86  A    between atoms: _215  and  _216
REMARK   87  A    between atoms: _225  and  _227
REMARK   88  A    between atoms: _227  and  _228
REMARK   89  A    between atoms: _227  and  _230
REMARK   90  A    between atoms: _230  and  _231
REMARK   91  A    between atoms: _231  and  _232
REMARK   92  A    between atoms: _235  and  _237
REMARK   93  A    between atoms: _237  and  _238
REMARK   94  A    between atoms: _237  and  _240
REMARK   95  A    between atoms: _240  and  _241
REMARK   96  A    between atoms: _246  and  _248
REMARK   97  A    between atoms: _248  and  _249
REMARK   98  A    between atoms: _248  and  _251
REMARK   99  A    between atoms: _251  and  _252
REMARK  100  A    between atoms: _255  and  _257
REMARK  101  A    between atoms: _257  and  _258
REMARK  102  A    between atoms: _257  and  _260
REMARK  103  A    between atoms: _260  and  _261
REMARK  104  A    between atoms: _264  and  _266
REMARK  105  A    between atoms: _266  and  _267
REMARK  106  A    between atoms: _266  and  _269
REMARK  107  A    between atoms: _269  and  _270
REMARK  108  A    between atoms: _275  and  _277
REMARK  109  A    between atoms: _277  and  _278
REMARK  110  A    between atoms: _277  and  _280
REMARK  111  A    between atoms: _280  and  _281
REMARK  112  A    between atoms: _284  and  _286
REMARK  113  A    between atoms: _286  and  _287
REMARK  114  A    between atoms: _286  and  _289
REMARK  115  A    between atoms: _289  and  _290
REMARK  116  A    between atoms: _295  and  _297
REMARK  117  A    between atoms: _297  and  _298
REMARK  118  A    between atoms: _297  and  _300
REMARK  119  A    between atoms: _300  and  _301
REMARK  120  A    between atoms: _306  and  _308
REMARK  121  A    between atoms: _308  and  _309
REMARK  122  A    between atoms: _308  and  _311
REMARK  123  A    between atoms: _311  and  _312
REMARK  124  A    between atoms: _315  and  _317
REMARK  125  A    between atoms: _317  and  _318
REMARK  126  A    between atoms: _317  and  _320
REMARK  127  A    between atoms: _323  and  _325
REMARK  128  A    between atoms: _325  and  _326
REMARK  129  A    between atoms: _325  and  _328
REMARK  130  A    between atoms: _328  and  _329
REMARK  131  A    between atoms: _333  and  _334
REMARK  132  A    between atoms: _339  and  _341
REMARK  133  A    between atoms: _341  and  _342
REMARK  134  A    between atoms: _341  and  _344
REMARK  135  A    between atoms: _344  and  _345
REMARK  136  A    between atoms: _345  and  _346
REMARK  137  A    between atoms: _349  and  _351
REMARK  138  A    between atoms: _351  and  _352
REMARK  139  A    between atoms: _355  and  _357
REMARK  140  A    between atoms: _357  and  _358
REMARK  141  A    between atoms: _357  and  _360
REMARK  142  A    between atoms: _360  and  _361
REMARK  143  A    between atoms: _364  and  _366
REMARK  144  A    between atoms: _366  and  _367
REMARK  145  A    between atoms: _366  and  _369
REMARK  146  A    between atoms: _369  and  _370
REMARK  147  A    between atoms: _370  and  _371
REMARK  148  A    between atoms: _374  and  _376
REMARK  149  A    between atoms: _376  and  _377
REMARK  150  A    between atoms: _376  and  _379
REMARK  151  A    between atoms: _379  and  _380
REMARK  152  A    between atoms: _385  and  _387
REMARK  153  A    between atoms: _387  and  _388
REMARK  154  A    between atoms: _390  and  _392
REMARK  155  A    between atoms: _392  and  _393
REMARK  156  A    between atoms: _392  and  _395
REMARK  157  A    between atoms: _398  and  _400
REMARK  158  A    between atoms: _400  and  _401
REMARK  159  A    between atoms: _404  and  _406
REMARK  160  A    between atoms: _406  and  _407
REMARK  161  A    between atoms: _406  and  _409
REMARK  162  A    between atoms: _409  and  _410
REMARK  163  A    between atoms: _415  and  _417
REMARK  164  A    between atoms: _417  and  _418
REMARK  165  A    between atoms: _417  and  _420
REMARK  166  A    between atoms: _420  and  _421
REMARK  167  A    between atoms: _421  and  _422
REMARK  168  A    between atoms: _422  and  _423
REMARK  169  A    between atoms: _423  and  _424
REMARK  170  A    between atoms: _428  and  _430
REMARK  171  A    between atoms: _430  and  _431
REMARK  172  A    between atoms: _430  and  _433
REMARK  173  A    between atoms: _433  and  _434
REMARK  174  A    between atoms: _437  and  _439
REMARK  175  A    between atoms: _439  and  _440
REMARK  176  A    between atoms: _439  and  _442
REMARK  177  A    between atoms: _442  and  _443
REMARK  178  A    between atoms: _448  and  _450
REMARK  179  A    between atoms: _450  and  _451
REMARK  180  A    between atoms: _453  and  _455
REMARK  181  A    between atoms: _455  and  _456
REMARK  182  A    between atoms: _455  and  _458
REMARK  183  A    between atoms: _458  and  _459
REMARK  184  A    between atoms: _459  and  _460
REMARK  185  A    between atoms: _460  and  _461
REMARK  186  A    between atoms: _461  and  _462
REMARK  187  A    between atoms: _466  and  _468
REMARK  188  A    between atoms: _468  and  _469
REMARK  189  A    between atoms: _468  and  _471
REMARK  190  A    between atoms: _471  and  _472
REMARK  191  A    between atoms: _472  and  _473
REMARK  192  A    between atoms: _473  and  _474
REMARK  193  A    between atoms: _483  and  _485
REMARK  194  A    between atoms: _485  and  _486
REMARK  195  A    between atoms: _485  and  _488
REMARK  196  A    between atoms: _488  and  _489
REMARK  197  A    between atoms: _494  and  _496
REMARK  198  A    between atoms: _496  and  _497
REMARK  199  A    between atoms: _496  and  _499
REMARK  200  A    between atoms: _499  and  _500
REMARK  201  A    between atoms: _505  and  _506
REMARK  202  A    between atoms: _508  and  _510
REMARK  203  A    between atoms: _510  and  _511
REMARK  204  A    between atoms: _510  and  _513
REMARK  205  A    between atoms: _513  and  _514
REMARK  206  A    between atoms: _514  and  _515
REMARK  207  A    between atoms: _515  and  _516
REMARK  208  A    between atoms: _516  and  _517
REMARK  209  A    between atoms: _521  and  _523
REMARK  210  A    between atoms: _523  and  _524
REMARK  211  A    between atoms: _523  and  _526
REMARK  212  A    between atoms: _526  and  _527
REMARK  213  A    between atoms: _529  and  _531
REMARK  214  A    between atoms: _531  and  _532
REMARK  215  A    between atoms: _531  and  _534
REMARK  216  A    between atoms: _534  and  _535
REMARK  217  A    between atoms: _538  and  _540
REMARK  218  A    between atoms: _540  and  _541
REMARK  219  A    between atoms: _540  and  _543
REMARK  220  A    between atoms: _543  and  _544
REMARK  221  A    between atoms: _544  and  _545
REMARK  222  A    between atoms: _548  and  _550
REMARK  223  A    between atoms: _550  and  _551
REMARK  224  A    between atoms: _554  and  _556
REMARK  225  A    between atoms: _556  and  _557
REMARK  226  A    between atoms: _556  and  _559
REMARK  227  A    between atoms: _559  and  _560
REMARK  228  A    between atoms: _562  and  _564
REMARK  229  A    between atoms: _564  and  _565
REMARK  230  A    between atoms: _567  and  _569
REMARK  231  A    between atoms: _569  and  _570
REMARK  232  A    between atoms: _569  and  _572
REMARK  233  A    between atoms: _572  and  _573
REMARK  234  A    between atoms: _576  and  _578
REMARK  235  A    between atoms: _578  and  _579
REMARK  236  A    between atoms: _581  and  _583
REMARK  237  A    between atoms: _583  and  _584
REMARK  238  A    between atoms: _583  and  _586
REMARK  239  A    between atoms: _586  and  _587
REMARK  240  A    between atoms: _592  and  _594
REMARK  241  A    between atoms: _594  and  _595
REMARK  242  A    between atoms: _594  and  _597
REMARK  243  A    between atoms: _597  and  _598
REMARK  244  A    between atoms: _598  and  _599
REMARK  245  A    between atoms: _606  and  _607
REMARK  246  A    between atoms: _607  and  _623
REMARK  247  A    between atoms: _608  and  _610
REMARK  248  A    between atoms: _610  and  _611
REMARK  249  A    between atoms: _611  and  _612
REMARK  250  A    between atoms: _616  and  _618
REMARK  251  A    between atoms: _618  and  _619
REMARK  252  A    between atoms: _618  and  _626
REMARK  253  A    between atoms: _619  and  _620
REMARK  254  A    between atoms: _620  and  _621
REMARK  255  A    between atoms: _621  and  _622
REMARK  256  A    between atoms: _622  and  _623
REMARK  257  A    between atoms: _628  and  _630
REMARK  258  A    between atoms: _630  and  _631
REMARK  259  A    between atoms: _630  and  _633
REMARK  260  A    between atoms: _633  and  _634
REMARK  261  A    between atoms: _637  and  _639
REMARK  262  A    between atoms: _639  and  _640
REMARK  263  A    between atoms: _642  and  _644
REMARK  264  A    between atoms: _644  and  _645
REMARK  265  A    between atoms: _648  and  _650
REMARK  266  A    between atoms: _650  and  _651
REMARK  267  A    between atoms: _650  and  _653
REMARK  268  A    between atoms: _653  and  _654
REMARK  269  A    between atoms: _659  and  _660
REMARK                            x       y       z     vdW  Elec       q    Type
REMARK                         _______ _______ _______ _____ _____    ______ ____
ROOT
ATOM      1  O   HOH     1      42.638  24.212  26.655  0.00  0.00    +0.000 OA
ENDROOT
TORSDOF 0
REMARK  Name = ../refined-set-2016/2pyi/2pyi_pocket.pdb
REMARK  269 active torsions:
REMARK  status: ('A' for Active; 'I' for Inactive)
REMARK    1  A    between atoms: _1  and  _3
REMARK    2  A    between atoms: _3  and  _4
REMARK    3  A    between atoms: _3  and  _6
REMARK    4  A    between atoms: _6  and  _7
REMARK    5  A    between atoms: _12  and  _13
REMARK    6  A    between atoms: _15  and  _17
REMARK    7  A    between atoms: _17  and  _18
REMARK    8  A    between atoms: _17  and  _20
REMARK    9  A    between atoms: _20  and  _21
REMARK   10  A    between atoms: _21  and  _22
REMARK   11  A    between atoms: _25  and  _27
REMARK   12  A    between atoms: _27  and  _28
REMARK   13  A    between atoms: _27  and  _30
REMARK   14  A    between atoms: _30  and  _31
REMARK   15  A    between atoms: _36  and  _38
REMARK   16  A    between atoms: _38  and  _39
REMARK   17  A    between atoms: _41  and  _43
REMARK   18  A    between atoms: _43  and  _44
REMARK   19  A    between atoms: _46  and  _48
REMARK   20  A    between atoms: _48  and  _49
REMARK   21  A    between atoms: _48  and  _51
REMARK   22  A    between atoms: _51  and  _52
REMARK   23  A    between atoms: _55  and  _57
REMARK   24  A    between atoms: _57  and  _58
REMARK   25  A    between atoms: _60  and  _62
REMARK   26  A    between atoms: _62  and  _63
REMARK   27  A    between atoms: _62  and  _65
REMARK   28  A    between atoms: _65  and  _66
REMARK   29  A    between atoms: _66  and  _67
REMARK   30  A    between atoms: _67  and  _68
REMARK   31  A    between atoms: _77  and  _79
REMARK   32  A    between atoms: _79  and  _80
REMARK   33  A    between atoms: _79  and  _82
REMARK   34  A    between atoms: _82  and  _83
REMARK   35  A    between atoms: _86  and  _88
REMARK   36  A    between atoms: _88  and  _89
REMARK   37  A    between atoms: _92  and  _94
REMARK   38  A    between atoms: _94  and  _95
REMARK   39  A    between atoms: _94  and  _97
REMARK   40  A    between atoms: _97  and  _98
REMARK   41  A    between atoms: _104  and  _106
REMARK   42  A    between atoms: _106  and  _107
REMARK   43  A    between atoms: _106  and  _109
REMARK   44  A    between atoms: _109  and  _110
REMARK   45  A    between atoms: _115  and  _116
REMARK   46  A    between atoms: _119  and  _120
REMARK   47  A    between atoms: _125  and  _127
REMARK   48  A    between atoms: _127  and  _128
REMARK   49  A    between atoms: _127  and  _130
REMARK   50  A    between atoms: _130  and  _131
REMARK   51  A    between atoms: _136  and  _138
REMARK   52  A    between atoms: _138  and  _139
REMARK   53  A    between atoms: _138  and  _141
REMARK   54  A    between atoms: _141  and  _142
REMARK   55  A    between atoms: _145  and  _147
REMARK   56  A    between atoms: _147  and  _148
REMARK   57  A    between atoms: _147  and  _150
REMARK   58  A    between atoms: _150  and  _151
REMARK   59  A    between atoms: _156  and  _158
REMARK   60  A    between atoms: _158  and  _159
REMARK   61  A    between atoms: _158  and  _161
REMARK   62  A    between atoms: _161  and  _162
REMARK   63  A    between atoms: _168  and  _170
REMARK   64  A    between atoms: _170  and  _171
REMARK   65  A    between atoms: _170  and  _173
REMARK   66  A    between atoms: _173  and  _174
REMARK   67  A    between atoms: _180  and  _182
REMARK   68  A    between atoms: _182  and  _183
REMARK   69  A    between atoms: _182  and  _185
REMARK   70  A    between atoms: _185  and  _186
REMARK   71  A    between atoms: _186  and  _187
REMARK   72  A    between atoms: _190  and  _192
REMARK   73  A    between atoms: _192  and  _193
REMARK   74  A    between atoms: _195  and  _197
REMARK   75  A    between atoms: _197  and  _198
REMARK   76  A    between atoms: _197  and  _200
REMARK   77  A    between atoms: _200  and  _201
REMARK   78  A    between atoms: _201  and  _202
REMARK   79  A    between atoms: _202  and  _203
REMARK   80  A    between atoms: _203  and  _204
REMARK   81  A    between atoms: _208  and  _210
REMARK   82  A    between atoms: _210  and  _211
REMARK   83  A    between atoms: _210  and  _213
REMARK   84  A    between atoms: _213  and  _214
REMARK   85  A    between atoms: _214  and  _215
REMARK   86  A    between atoms: _215  and  _216
REMARK   87  A    between atoms: _225  and  _227
REMARK   88  A    between atoms: _227  and  _228
REMARK   89  A    between atoms: _227  and  _230
REMARK   90  A    between atoms: _230  and  _231
REMARK   91  A    between atoms: _231  and  _232
REMARK   92  A    between atoms: _235  and  _237
REMARK   93  A    between atoms: _237  and  _238
REMARK   94  A    between atoms: _237  and  _240
REMARK   95  A    between atoms: _240  and  _241
REMARK   96  A    between atoms: _246  and  _248
REMARK   97  A    between atoms: _248  and  _249
REMARK   98  A    between atoms: _248  and  _251
REMARK   99  A    between atoms: _251  and  _252
REMARK  100  A    between atoms: _255  and  _257
REMARK  101  A    between atoms: _257  and  _258
REMARK  102  A    between atoms: _257  and  _260
REMARK  103  A    between atoms: _260  and  _261
REMARK  104  A    between atoms: _264  and  _266
REMARK  105  A    between atoms: _266  and  _267
REMARK  106  A    between atoms: _266  and  _269
REMARK  107  A    between atoms: _269  and  _270
REMARK  108  A    between atoms: _275  and  _277
REMARK  109  A    between atoms: _277  and  _278
REMARK  110  A    between atoms: _277  and  _280
REMARK  111  A    between atoms: _280  and  _281
REMARK  112  A    between atoms: _284  and  _286
REMARK  113  A    between atoms: _286  and  _287
REMARK  114  A    between atoms: _286  and  _289
REMARK  115  A    between atoms: _289  and  _290
REMARK  116  A    between atoms: _295  and  _297
REMARK  117  A    between atoms: _297  and  _298
REMARK  118  A    between atoms: _297  and  _300
REMARK  119  A    between atoms: _300  and  _301
REMARK  120  A    between atoms: _306  and  _308
REMARK  121  A    between atoms: _308  and  _309
REMARK  122  A    between atoms: _308  and  _311
REMARK  123  A    between atoms: _311  and  _312
REMARK  124  A    between atoms: _315  and  _317
REMARK  125  A    between atoms: _317  and  _318
REMARK  126  A    between atoms: _317  and  _320
REMARK  127  A    between atoms: _323  and  _325
REMARK  128  A    between atoms: _325  and  _326
REMARK  129  A    between atoms: _325  and  _328
REMARK  130  A    between atoms: _328  and  _329
REMARK  131  A    between atoms: _333  and  _334
REMARK  132  A    between atoms: _339  and  _341
REMARK  133  A    between atoms: _341  and  _342
REMARK  134  A    between atoms: _341  and  _344
REMARK  135  A    between atoms: _344  and  _345
REMARK  136  A    between atoms: _345  and  _346
REMARK  137  A    between atoms: _349  and  _351
REMARK  138  A    between atoms: _351  and  _352
REMARK  139  A    between atoms: _355  and  _357
REMARK  140  A    between atoms: _357  and  _358
REMARK  141  A    between atoms: _357  and  _360
REMARK  142  A    between atoms: _360  and  _361
REMARK  143  A    between atoms: _364  and  _366
REMARK  144  A    between atoms: _366  and  _367
REMARK  145  A    between atoms: _366  and  _369
REMARK  146  A    between atoms: _369  and  _370
REMARK  147  A    between atoms: _370  and  _371
REMARK  148  A    between atoms: _374  and  _376
REMARK  149  A    between atoms: _376  and  _377
REMARK  150  A    between atoms: _376  and  _379
REMARK  151  A    between atoms: _379  and  _380
REMARK  152  A    between atoms: _385  and  _387
REMARK  153  A    between atoms: _387  and  _388
REMARK  154  A    between atoms: _390  and  _392
REMARK  155  A    between atoms: _392  and  _393
REMARK  156  A    between atoms: _392  and  _395
REMARK  157  A    between atoms: _398  and  _400
REMARK  158  A    between atoms: _400  and  _401
REMARK  159  A    between atoms: _404  and  _406
REMARK  160  A    between atoms: _406  and  _407
REMARK  161  A    between atoms: _406  and  _409
REMARK  162  A    between atoms: _409  and  _410
REMARK  163  A    between atoms: _415  and  _417
REMARK  164  A    between atoms: _417  and  _418
REMARK  165  A    between atoms: _417  and  _420
REMARK  166  A    between atoms: _420  and  _421
REMARK  167  A    between atoms: _421  and  _422
REMARK  168  A    between atoms: _422  and  _423
REMARK  169  A    between atoms: _423  and  _424
REMARK  170  A    between atoms: _428  and  _430
REMARK  171  A    between atoms: _430  and  _431
REMARK  172  A    between atoms: _430  and  _433
REMARK  173  A    between atoms: _433  and  _434
REMARK  174  A    between atoms: _437  and  _439
REMARK  175  A    between atoms: _439  and  _440
REMARK  176  A    between atoms: _439  and  _442
REMARK  177  A    between atoms: _442  and  _443
REMARK  178  A    between atoms: _448  and  _450
REMARK  179  A    between atoms: _450  and  _451
REMARK  180  A    between atoms: _453  and  _455
REMARK  181  A    between atoms: _455  and  _456
REMARK  182  A    between atoms: _455  and  _458
REMARK  183  A    between atoms: _458  and  _459
REMARK  184  A    between atoms: _459  and  _460
REMARK  185  A    between atoms: _460  and  _461
REMARK  186  A    between atoms: _461  and  _462
REMARK  187  A    between atoms: _466  and  _468
REMARK  188  A    between atoms: _468  and  _469
REMARK  189  A    between atoms: _468  and  _471
REMARK  190  A    between atoms: _471  and  _472
REMARK  191  A    between atoms: _472  and  _473
REMARK  192  A    between atoms: _473  and  _474
REMARK  193  A    between atoms: _483  and  _485
REMARK  194  A    between atoms: _485  and  _486
REMARK  195  A    between atoms: _485  and  _488
REMARK  196  A    between atoms: _488  and  _489
REMARK  197  A    between atoms: _494  and  _496
REMARK  198  A    between atoms: _496  and  _497
REMARK  199  A    between atoms: _496  and  _499
REMARK  200  A    between atoms: _499  and  _500
REMARK  201  A    between atoms: _505  and  _506
REMARK  202  A    between atoms: _508  and  _510
REMARK  203  A    between atoms: _510  and  _511
REMARK  204  A    between atoms: _510  and  _513
REMARK  205  A    between atoms: _513  and  _514
REMARK  206  A    between atoms: _514  and  _515
REMARK  207  A    between atoms: _515  and  _516
REMARK  208  A    between atoms: _516  and  _517
REMARK  209  A    between atoms: _521  and  _523
REMARK  210  A    between atoms: _523  and  _524
REMARK  211  A    between atoms: _523  and  _526
REMARK  212  A    between atoms: _526  and  _527
REMARK  213  A    between atoms: _529  and  _531
REMARK  214  A    between atoms: _531  and  _532
REMARK  215  A    between atoms: _531  and  _534
REMARK  216  A    between atoms: _534  and  _535
REMARK  217  A    between atoms: _538  and  _540
REMARK  218  A    between atoms: _540  and  _541
REMARK  219  A    between atoms: _540  and  _543
REMARK  220  A    between atoms: _543  and  _544
REMARK  221  A    between atoms: _544  and  _545
REMARK  222  A    between atoms: _548  and  _550
REMARK  223  A    between atoms: _550  and  _551
REMARK  224  A    between atoms: _554  and  _556
REMARK  225  A    between atoms: _556  and  _557
REMARK  226  A    between atoms: _556  and  _559
REMARK  227  A    between atoms: _559  and  _560
REMARK  228  A    between atoms: _562  and  _564
REMARK  229  A    between atoms: _564  and  _565
REMARK  230  A    between atoms: _567  and  _569
REMARK  231  A    between atoms: _569  and  _570
REMARK  232  A    between atoms: _569  and  _572
REMARK  233  A    between atoms: _572  and  _573
REMARK  234  A    between atoms: _576  and  _578
REMARK  235  A    between atoms: _578  and  _579
REMARK  236  A    between atoms: _581  and  _583
REMARK  237  A    between atoms: _583  and  _584
REMARK  238  A    between atoms: _583  and  _586
REMARK  239  A    between atoms: _586  and  _587
REMARK  240  A    between atoms: _592  and  _594
REMARK  241  A    between atoms: _594  and  _595
REMARK  242  A    between atoms: _594  and  _597
REMARK  243  A    between atoms: _597  and  _598
REMARK  244  A    between atoms: _598  and  _599
REMARK  245  A    between atoms: _606  and  _607
REMARK  246  A    between atoms: _607  and  _623
REMARK  247  A    between atoms: _608  and  _610
REMARK  248  A    between atoms: _610  and  _611
REMARK  249  A    between atoms: _611  and  _612
REMARK  250  A    between atoms: _616  and  _618
REMARK  251  A    between atoms: _618  and  _619
REMARK  252  A    between atoms: _618  and  _626
REMARK  253  A    between atoms: _619  and  _620
REMARK  254  A    between atoms: _620  and  _621
REMARK  255  A    between atoms: _621  and  _622
REMARK  256  A    between atoms: _622  and  _623
REMARK  257  A    between atoms: _628  and  _630
REMARK  258  A    between atoms: _630  and  _631
REMARK  259  A    between atoms: _630  and  _633
REMARK  260  A    between atoms: _633  and  _634
REMARK  261  A    between atoms: _637  and  _639
REMARK  262  A    between atoms: _639  and  _640
REMARK  263  A    between atoms: _642  and  _644
REMARK  264  A    between atoms: _644  and  _645
REMARK  265  A    between atoms: _648  and  _650
REMARK  266  A    between atoms: _650  and  _651
REMARK  267  A    between atoms: _650  and  _653
REMARK  268  A    between atoms: _653  and  _654
REMARK  269  A    between atoms: _659  and  _660
REMARK                            x       y       z     vdW  Elec       q    Type
REMARK                         _______ _______ _______ _____ _____    ______ ____
ROOT
ATOM      1  O   HOH     1      36.854  36.066  33.635  0.00  0.00    +0.000 OA
ENDROOT
TORSDOF 0
REMARK  Name = ../refined-set-2016/2pyi/2pyi_pocket.pdb
REMARK  269 active torsions:
REMARK  status: ('A' for Active; 'I' for Inactive)
REMARK    1  A    between atoms: _1  and  _3
REMARK    2  A    between atoms: _3  and  _4
REMARK    3  A    between atoms: _3  and  _6
REMARK    4  A    between atoms: _6  and  _7
REMARK    5  A    between atoms: _12  and  _13
REMARK    6  A    between atoms: _15  and  _17
REMARK    7  A    between atoms: _17  and  _18
REMARK    8  A    between atoms: _17  and  _20
REMARK    9  A    between atoms: _20  and  _21
REMARK   10  A    between atoms: _21  and  _22
REMARK   11  A    between atoms: _25  and  _27
REMARK   12  A    between atoms: _27  and  _28
REMARK   13  A    between atoms: _27  and  _30
REMARK   14  A    between atoms: _30  and  _31
REMARK   15  A    between atoms: _36  and  _38
REMARK   16  A    between atoms: _38  and  _39
REMARK   17  A    between atoms: _41  and  _43
REMARK   18  A    between atoms: _43  and  _44
REMARK   19  A    between atoms: _46  and  _48
REMARK   20  A    between atoms: _48  and  _49
REMARK   21  A    between atoms: _48  and  _51
REMARK   22  A    between atoms: _51  and  _52
REMARK   23  A    between atoms: _55  and  _57
REMARK   24  A    between atoms: _57  and  _58
REMARK   25  A    between atoms: _60  and  _62
REMARK   26  A    between atoms: _62  and  _63
REMARK   27  A    between atoms: _62  and  _65
REMARK   28  A    between atoms: _65  and  _66
REMARK   29  A    between atoms: _66  and  _67
REMARK   30  A    between atoms: _67  and  _68
REMARK   31  A    between atoms: _77  and  _79
REMARK   32  A    between atoms: _79  and  _80
REMARK   33  A    between atoms: _79  and  _82
REMARK   34  A    between atoms: _82  and  _83
REMARK   35  A    between atoms: _86  and  _88
REMARK   36  A    between atoms: _88  and  _89
REMARK   37  A    between atoms: _92  and  _94
REMARK   38  A    between atoms: _94  and  _95
REMARK   39  A    between atoms: _94  and  _97
REMARK   40  A    between atoms: _97  and  _98
REMARK   41  A    between atoms: _104  and  _106
REMARK   42  A    between atoms: _106  and  _107
REMARK   43  A    between atoms: _106  and  _109
REMARK   44  A    between atoms: _109  and  _110
REMARK   45  A    between atoms: _115  and  _116
REMARK   46  A    between atoms: _119  and  _120
REMARK   47  A    between atoms: _125  and  _127
REMARK   48  A    between atoms: _127  and  _128
REMARK   49  A    between atoms: _127  and  _130
REMARK   50  A    between atoms: _130  and  _131
REMARK   51  A    between atoms: _136  and  _138
REMARK   52  A    between atoms: _138  and  _139
REMARK   53  A    between atoms: _138  and  _141
REMARK   54  A    between atoms: _141  and  _142
REMARK   55  A    between atoms: _145  and  _147
REMARK   56  A    between atoms: _147  and  _148
REMARK   57  A    between atoms: _147  and  _150
REMARK   58  A    between atoms: _150  and  _151
REMARK   59  A    between atoms: _156  and  _158
REMARK   60  A    between atoms: _158  and  _159
REMARK   61  A    between atoms: _158  and  _161
REMARK   62  A    between atoms: _161  and  _162
REMARK   63  A    between atoms: _168  and  _170
REMARK   64  A    between atoms: _170  and  _171
REMARK   65  A    between atoms: _170  and  _173
REMARK   66  A    between atoms: _173  and  _174
REMARK   67  A    between atoms: _180  and  _182
REMARK   68  A    between atoms: _182  and  _183
REMARK   69  A    between atoms: _182  and  _185
REMARK   70  A    between atoms: _185  and  _186
REMARK   71  A    between atoms: _186  and  _187
REMARK   72  A    between atoms: _190  and  _192
REMARK   73  A    between atoms: _192  and  _193
REMARK   74  A    between atoms: _195  and  _197
REMARK   75  A    between atoms: _197  and  _198
REMARK   76  A    between atoms: _197  and  _200
REMARK   77  A    between atoms: _200  and  _201
REMARK   78  A    between atoms: _201  and  _202
REMARK   79  A    between atoms: _202  and  _203
REMARK   80  A    between atoms: _203  and  _204
REMARK   81  A    between atoms: _208  and  _210
REMARK   82  A    between atoms: _210  and  _211
REMARK   83  A    between atoms: _210  and  _213
REMARK   84  A    between atoms: _213  and  _214
REMARK   85  A    between atoms: _214  and  _215
REMARK   86  A    between atoms: _215  and  _216
REMARK   87  A    between atoms: _225  and  _227
REMARK   88  A    between atoms: _227  and  _228
REMARK   89  A    between atoms: _227  and  _230
REMARK   90  A    between atoms: _230  and  _231
REMARK   91  A    between atoms: _231  and  _232
REMARK   92  A    between atoms: _235  and  _237
REMARK   93  A    between atoms: _237  and  _238
REMARK   94  A    between atoms: _237  and  _240
REMARK   95  A    between atoms: _240  and  _241
REMARK   96  A    between atoms: _246  and  _248
REMARK   97  A    between atoms: _248  and  _249
REMARK   98  A    between atoms: _248  and  _251
REMARK   99  A    between atoms: _251  and  _252
REMARK  100  A    between atoms: _255  and  _257
REMARK  101  A    between atoms: _257  and  _258
REMARK  102  A    between atoms: _257  and  _260
REMARK  103  A    between atoms: _260  and  _261
REMARK  104  A    between atoms: _264  and  _266
REMARK  105  A    between atoms: _266  and  _267
REMARK  106  A    between atoms: _266  and  _269
REMARK  107  A    between atoms: _269  and  _270
REMARK  108  A    between atoms: _275  and  _277
REMARK  109  A    between atoms: _277  and  _278
REMARK  110  A    between atoms: _277  and  _280
REMARK  111  A    between atoms: _280  and  _281
REMARK  112  A    between atoms: _284  and  _286
REMARK  113  A    between atoms: _286  and  _287
REMARK  114  A    between atoms: _286  and  _289
REMARK  115  A    between atoms: _289  and  _290
REMARK  116  A    between atoms: _295  and  _297
REMARK  117  A    between atoms: _297  and  _298
REMARK  118  A    between atoms: _297  and  _300
REMARK  119  A    between atoms: _300  and  _301
REMARK  120  A    between atoms: _306  and  _308
REMARK  121  A    between atoms: _308  and  _309
REMARK  122  A    between atoms: _308  and  _311
REMARK  123  A    between atoms: _311  and  _312
REMARK  124  A    between atoms: _315  and  _317
REMARK  125  A    between atoms: _317  and  _318
REMARK  126  A    between atoms: _317  and  _320
REMARK  127  A    between atoms: _323  and  _325
REMARK  128  A    between atoms: _325  and  _326
REMARK  129  A    between atoms: _325  and  _328
REMARK  130  A    between atoms: _328  and  _329
REMARK  131  A    between atoms: _333  and  _334
REMARK  132  A    between atoms: _339  and  _341
REMARK  133  A    between atoms: _341  and  _342
REMARK  134  A    between atoms: _341  and  _344
REMARK  135  A    between atoms: _344  and  _345
REMARK  136  A    between atoms: _345  and  _346
REMARK  137  A    between atoms: _349  and  _351
REMARK  138  A    between atoms: _351  and  _352
REMARK  139  A    between atoms: _355  and  _357
REMARK  140  A    between atoms: _357  and  _358
REMARK  141  A    between atoms: _357  and  _360
REMARK  142  A    between atoms: _360  and  _361
REMARK  143  A    between atoms: _364  and  _366
REMARK  144  A    between atoms: _366  and  _367
REMARK  145  A    between atoms: _366  and  _369
REMARK  146  A    between atoms: _369  and  _370
REMARK  147  A    between atoms: _370  and  _371
REMARK  148  A    between atoms: _374  and  _376
REMARK  149  A    between atoms: _376  and  _377
REMARK  150  A    between atoms: _376  and  _379
REMARK  151  A    between atoms: _379  and  _380
REMARK  152  A    between atoms: _385  and  _387
REMARK  153  A    between atoms: _387  and  _388
REMARK  154  A    between atoms: _390  and  _392
REMARK  155  A    between atoms: _392  and  _393
REMARK  156  A    between atoms: _392  and  _395
REMARK  157  A    between atoms: _398  and  _400
REMARK  158  A    between atoms: _400  and  _401
REMARK  159  A    between atoms: _404  and  _406
REMARK  160  A    between atoms: _406  and  _407
REMARK  161  A    between atoms: _406  and  _409
REMARK  162  A    between atoms: _409  and  _410
REMARK  163  A    between atoms: _415  and  _417
REMARK  164  A    between atoms: _417  and  _418
REMARK  165  A    between atoms: _417  and  _420
REMARK  166  A    between atoms: _420  and  _421
REMARK  167  A    between atoms: _421  and  _422
REMARK  168  A    between atoms: _422  and  _423
REMARK  169  A    between atoms: _423  and  _424
REMARK  170  A    between atoms: _428  and  _430
REMARK  171  A    between atoms: _430  and  _431
REMARK  172  A    between atoms: _430  and  _433
REMARK  173  A    between atoms: _433  and  _434
REMARK  174  A    between atoms: _437  and  _439
REMARK  175  A    between atoms: _439  and  _440
REMARK  176  A    between atoms: _439  and  _442
REMARK  177  A    between atoms: _442  and  _443
REMARK  178  A    between atoms: _448  and  _450
REMARK  179  A    between atoms: _450  and  _451
REMARK  180  A    between atoms: _453  and  _455
REMARK  181  A    between atoms: _455  and  _456
REMARK  182  A    between atoms: _455  and  _458
REMARK  183  A    between atoms: _458  and  _459
REMARK  184  A    between atoms: _459  and  _460
REMARK  185  A    between atoms: _460  and  _461
REMARK  186  A    between atoms: _461  and  _462
REMARK  187  A    between atoms: _466  and  _468
REMARK  188  A    between atoms: _468  and  _469
REMARK  189  A    between atoms: _468  and  _471
REMARK  190  A    between atoms: _471  and  _472
REMARK  191  A    between atoms: _472  and  _473
REMARK  192  A    between atoms: _473  and  _474
REMARK  193  A    between atoms: _483  and  _485
REMARK  194  A    between atoms: _485  and  _486
REMARK  195  A    between atoms: _485  and  _488
REMARK  196  A    between atoms: _488  and  _489
REMARK  197  A    between atoms: _494  and  _496
REMARK  198  A    between atoms: _496  and  _497
REMARK  199  A    between atoms: _496  and  _499
REMARK  200  A    between atoms: _499  and  _500
REMARK  201  A    between atoms: _505  and  _506
REMARK  202  A    between atoms: _508  and  _510
REMARK  203  A    between atoms: _510  and  _511
REMARK  204  A    between atoms: _510  and  _513
REMARK  205  A    between atoms: _513  and  _514
REMARK  206  A    between atoms: _514  and  _515
REMARK  207  A    between atoms: _515  and  _516
REMARK  208  A    between atoms: _516  and  _517
REMARK  209  A    between atoms: _521  and  _523
REMARK  210  A    between atoms: _523  and  _524
REMARK  211  A    between atoms: _523  and  _526
REMARK  212  A    between atoms: _526  and  _527
REMARK  213  A    between atoms: _529  and  _531
REMARK  214  A    between atoms: _531  and  _532
REMARK  215  A    between atoms: _531  and  _534
REMARK  216  A    between atoms: _534  and  _535
REMARK  217  A    between atoms: _538  and  _540
REMARK  218  A    between atoms: _540  and  _541
REMARK  219  A    between atoms: _540  and  _543
REMARK  220  A    between atoms: _543  and  _544
REMARK  221  A    between atoms: _544  and  _545
REMARK  222  A    between atoms: _548  and  _550
REMARK  223  A    between atoms: _550  and  _551
REMARK  224  A    between atoms: _554  and  _556
REMARK  225  A    between atoms: _556  and  _557
REMARK  226  A    between atoms: _556  and  _559
REMARK  227  A    between atoms: _559  and  _560
REMARK  228  A    between atoms: _562  and  _564
REMARK  229  A    between atoms: _564  and  _565
REMARK  230  A    between atoms: _567  and  _569
REMARK  231  A    between atoms: _569  and  _570
REMARK  232  A    between atoms: _569  and  _572
REMARK  233  A    between atoms: _572  and  _573
REMARK  234  A    between atoms: _576  and  _578
REMARK  235  A    between atoms: _578  and  _579
REMARK  236  A    between atoms: _581  and  _583
REMARK  237  A    between atoms: _583  and  _584
REMARK  238  A    between atoms: _583  and  _586
REMARK  239  A    between atoms: _586  and  _587
REMARK  240  A    between atoms: _592  and  _594
REMARK  241  A    between atoms: _594  and  _595
REMARK  242  A    between atoms: _594  and  _597
REMARK  243  A    between atoms: _597  and  _598
REMARK  244  A    between atoms: _598  and  _599
REMARK  245  A    between atoms: _606  and  _607
REMARK  246  A    between atoms: _607  and  _623
REMARK  247  A    between atoms: _608  and  _610
REMARK  248  A    between atoms: _610  and  _611
REMARK  249  A    between atoms: _611  and  _612
REMARK  250  A    between atoms: _616  and  _618
REMARK  251  A    between atoms: _618  and  _619
REMARK  252  A    between atoms: _618  and  _626
REMARK  253  A    between atoms: _619  and  _620
REMARK  254  A    between atoms: _620  and  _621
REMARK  255  A    between atoms: _621  and  _622
REMARK  256  A    between atoms: _622  and  _623
REMARK  257  A    between atoms: _628  and  _630
REMARK  258  A    between atoms: _630  and  _631
REMARK  259  A    between atoms: _630  and  _633
REMARK  260  A    between atoms: _633  and  _634
REMARK  261  A    between atoms: _637  and  _639
REMARK  262  A    between atoms: _639  and  _640
REMARK  263  A    between atoms: _642  and  _644
REMARK  264  A    between atoms: _644  and  _645
REMARK  265  A    between atoms: _648  and  _650
REMARK  266  A    between atoms: _650  and  _651
REMARK  267  A    between atoms: _650  and  _653
REMARK  268  A    between atoms: _653  and  _654
REMARK  269  A    between atoms: _659  and  _660
REMARK                            x       y       z     vdW  Elec       q    Type
REMARK                         _______ _______ _______ _____ _____    ______ ____
ROOT
ATOM      1  O   HOH     1      30.873  26.870  30.837  0.00  0.00    +0.000 OA
ENDROOT
TORSDOF 0
REMARK  Name = ../refined-set-2016/2pyi/2pyi_pocket.pdb
REMARK  269 active torsions:
REMARK  status: ('A' for Active; 'I' for Inactive)
REMARK    1  A    between atoms: _1  and  _3
REMARK    2  A    between atoms: _3  and  _4
REMARK    3  A    between atoms: _3  and  _6
REMARK    4  A    between atoms: _6  and  _7
REMARK    5  A    between atoms: _12  and  _13
REMARK    6  A    between atoms: _15  and  _17
REMARK    7  A    between atoms: _17  and  _18
REMARK    8  A    between atoms: _17  and  _20
REMARK    9  A    between atoms: _20  and  _21
REMARK   10  A    between atoms: _21  and  _22
REMARK   11  A    between atoms: _25  and  _27
REMARK   12  A    between atoms: _27  and  _28
REMARK   13  A    between atoms: _27  and  _30
REMARK   14  A    between atoms: _30  and  _31
REMARK   15  A    between atoms: _36  and  _38
REMARK   16  A    between atoms: _38  and  _39
REMARK   17  A    between atoms: _41  and  _43
REMARK   18  A    between atoms: _43  and  _44
REMARK   19  A    between atoms: _46  and  _48
REMARK   20  A    between atoms: _48  and  _49
REMARK   21  A    between atoms: _48  and  _51
REMARK   22  A    between atoms: _51  and  _52
REMARK   23  A    between atoms: _55  and  _57
REMARK   24  A    between atoms: _57  and  _58
REMARK   25  A    between atoms: _60  and  _62
REMARK   26  A    between atoms: _62  and  _63
REMARK   27  A    between atoms: _62  and  _65
REMARK   28  A    between atoms: _65  and  _66
REMARK   29  A    between atoms: _66  and  _67
REMARK   30  A    between atoms: _67  and  _68
REMARK   31  A    between atoms: _77  and  _79
REMARK   32  A    between atoms: _79  and  _80
REMARK   33  A    between atoms: _79  and  _82
REMARK   34  A    between atoms: _82  and  _83
REMARK   35  A    between atoms: _86  and  _88
REMARK   36  A    between atoms: _88  and  _89
REMARK   37  A    between atoms: _92  and  _94
REMARK   38  A    between atoms: _94  and  _95
REMARK   39  A    between atoms: _94  and  _97
REMARK   40  A    between atoms: _97  and  _98
REMARK   41  A    between atoms: _104  and  _106
REMARK   42  A    between atoms: _106  and  _107
REMARK   43  A    between atoms: _106  and  _109
REMARK   44  A    between atoms: _109  and  _110
REMARK   45  A    between atoms: _115  and  _116
REMARK   46  A    between atoms: _119  and  _120
REMARK   47  A    between atoms: _125  and  _127
REMARK   48  A    between atoms: _127  and  _128
REMARK   49  A    between atoms: _127  and  _130
REMARK   50  A    between atoms: _130  and  _131
REMARK   51  A    between atoms: _136  and  _138
REMARK   52  A    between atoms: _138  and  _139
REMARK   53  A    between atoms: _138  and  _141
REMARK   54  A    between atoms: _141  and  _142
REMARK   55  A    between atoms: _145  and  _147
REMARK   56  A    between atoms: _147  and  _148
REMARK   57  A    between atoms: _147  and  _150
REMARK   58  A    between atoms: _150  and  _151
REMARK   59  A    between atoms: _156  and  _158
REMARK   60  A    between atoms: _158  and  _159
REMARK   61  A    between atoms: _158  and  _161
REMARK   62  A    between atoms: _161  and  _162
REMARK   63  A    between atoms: _168  and  _170
REMARK   64  A    between atoms: _170  and  _171
REMARK   65  A    between atoms: _170  and  _173
REMARK   66  A    between atoms: _173  and  _174
REMARK   67  A    between atoms: _180  and  _182
REMARK   68  A    between atoms: _182  and  _183
REMARK   69  A    between atoms: _182  and  _185
REMARK   70  A    between atoms: _185  and  _186
REMARK   71  A    between atoms: _186  and  _187
REMARK   72  A    between atoms: _190  and  _192
REMARK   73  A    between atoms: _192  and  _193
REMARK   74  A    between atoms: _195  and  _197
REMARK   75  A    between atoms: _197  and  _198
REMARK   76  A    between atoms: _197  and  _200
REMARK   77  A    between atoms: _200  and  _201
REMARK   78  A    between atoms: _201  and  _202
REMARK   79  A    between atoms: _202  and  _203
REMARK   80  A    between atoms: _203  and  _204
REMARK   81  A    between atoms: _208  and  _210
REMARK   82  A    between atoms: _210  and  _211
REMARK   83  A    between atoms: _210  and  _213
REMARK   84  A    between atoms: _213  and  _214
REMARK   85  A    between atoms: _214  and  _215
REMARK   86  A    between atoms: _215  and  _216
REMARK   87  A    between atoms: _225  and  _227
REMARK   88  A    between atoms: _227  and  _228
REMARK   89  A    between atoms: _227  and  _230
REMARK   90  A    between atoms: _230  and  _231
REMARK   91  A    between atoms: _231  and  _232
REMARK   92  A    between atoms: _235  and  _237
REMARK   93  A    between atoms: _237  and  _238
REMARK   94  A    between atoms: _237  and  _240
REMARK   95  A    between atoms: _240  and  _241
REMARK   96  A    between atoms: _246  and  _248
REMARK   97  A    between atoms: _248  and  _249
REMARK   98  A    between atoms: _248  and  _251
REMARK   99  A    between atoms: _251  and  _252
REMARK  100  A    between atoms: _255  and  _257
REMARK  101  A    between atoms: _257  and  _258
REMARK  102  A    between atoms: _257  and  _260
REMARK  103  A    between atoms: _260  and  _261
REMARK  104  A    between atoms: _264  and  _266
REMARK  105  A    between atoms: _266  and  _267
REMARK  106  A    between atoms: _266  and  _269
REMARK  107  A    between atoms: _269  and  _270
REMARK  108  A    between atoms: _275  and  _277
REMARK  109  A    between atoms: _277  and  _278
REMARK  110  A    between atoms: _277  and  _280
REMARK  111  A    between atoms: _280  and  _281
REMARK  112  A    between atoms: _284  and  _286
REMARK  113  A    between atoms: _286  and  _287
REMARK  114  A    between atoms: _286  and  _289
REMARK  115  A    between atoms: _289  and  _290
REMARK  116  A    between atoms: _295  and  _297
REMARK  117  A    between atoms: _297  and  _298
REMARK  118  A    between atoms: _297  and  _300
REMARK  119  A    between atoms: _300  and  _301
REMARK  120  A    between atoms: _306  and  _308
REMARK  121  A    between atoms: _308  and  _309
REMARK  122  A    between atoms: _308  and  _311
REMARK  123  A    between atoms: _311  and  _312
REMARK  124  A    between atoms: _315  and  _317
REMARK  125  A    between atoms: _317  and  _318
REMARK  126  A    between atoms: _317  and  _320
REMARK  127  A    between atoms: _323  and  _325
REMARK  128  A    between atoms: _325  and  _326
REMARK  129  A    between atoms: _325  and  _328
REMARK  130  A    between atoms: _328  and  _329
REMARK  131  A    between atoms: _333  and  _334
REMARK  132  A    between atoms: _339  and  _341
REMARK  133  A    between atoms: _341  and  _342
REMARK  134  A    between atoms: _341  and  _344
REMARK  135  A    between atoms: _344  and  _345
REMARK  136  A    between atoms: _345  and  _346
REMARK  137  A    between atoms: _349  and  _351
REMARK  138  A    between atoms: _351  and  _352
REMARK  139  A    between atoms: _355  and  _357
REMARK  140  A    between atoms: _357  and  _358
REMARK  141  A    between atoms: _357  and  _360
REMARK  142  A    between atoms: _360  and  _361
REMARK  143  A    between atoms: _364  and  _366
REMARK  144  A    between atoms: _366  and  _367
REMARK  145  A    between atoms: _366  and  _369
REMARK  146  A    between atoms: _369  and  _370
REMARK  147  A    between atoms: _370  and  _371
REMARK  148  A    between atoms: _374  and  _376
REMARK  149  A    between atoms: _376  and  _377
REMARK  150  A    between atoms: _376  and  _379
REMARK  151  A    between atoms: _379  and  _380
REMARK  152  A    between atoms: _385  and  _387
REMARK  153  A    between atoms: _387  and  _388
REMARK  154  A    between atoms: _390  and  _392
REMARK  155  A    between atoms: _392  and  _393
REMARK  156  A    between atoms: _392  and  _395
REMARK  157  A    between atoms: _398  and  _400
REMARK  158  A    between atoms: _400  and  _401
REMARK  159  A    between atoms: _404  and  _406
REMARK  160  A    between atoms: _406  and  _407
REMARK  161  A    between atoms: _406  and  _409
REMARK  162  A    between atoms: _409  and  _410
REMARK  163  A    between atoms: _415  and  _417
REMARK  164  A    between atoms: _417  and  _418
REMARK  165  A    between atoms: _417  and  _420
REMARK  166  A    between atoms: _420  and  _421
REMARK  167  A    between atoms: _421  and  _422
REMARK  168  A    between atoms: _422  and  _423
REMARK  169  A    between atoms: _423  and  _424
REMARK  170  A    between atoms: _428  and  _430
REMARK  171  A    between atoms: _430  and  _431
REMARK  172  A    between atoms: _430  and  _433
REMARK  173  A    between atoms: _433  and  _434
REMARK  174  A    between atoms: _437  and  _439
REMARK  175  A    between atoms: _439  and  _440
REMARK  176  A    between atoms: _439  and  _442
REMARK  177  A    between atoms: _442  and  _443
REMARK  178  A    between atoms: _448  and  _450
REMARK  179  A    between atoms: _450  and  _451
REMARK  180  A    between atoms: _453  and  _455
REMARK  181  A    between atoms: _455  and  _456
REMARK  182  A    between atoms: _455  and  _458
REMARK  183  A    between atoms: _458  and  _459
REMARK  184  A    between atoms: _459  and  _460
REMARK  185  A    between atoms: _460  and  _461
REMARK  186  A    between atoms: _461  and  _462
REMARK  187  A    between atoms: _466  and  _468
REMARK  188  A    between atoms: _468  and  _469
REMARK  189  A    between atoms: _468  and  _471
REMARK  190  A    between atoms: _471  and  _472
REMARK  191  A    between atoms: _472  and  _473
REMARK  192  A    between atoms: _473  and  _474
REMARK  193  A    between atoms: _483  and  _485
REMARK  194  A    between atoms: _485  and  _486
REMARK  195  A    between atoms: _485  and  _488
REMARK  196  A    between atoms: _488  and  _489
REMARK  197  A    between atoms: _494  and  _496
REMARK  198  A    between atoms: _496  and  _497
REMARK  199  A    between atoms: _496  and  _499
REMARK  200  A    between atoms: _499  and  _500
REMARK  201  A    between atoms: _505  and  _506
REMARK  202  A    between atoms: _508  and  _510
REMARK  203  A    between atoms: _510  and  _511
REMARK  204  A    between atoms: _510  and  _513
REMARK  205  A    between atoms: _513  and  _514
REMARK  206  A    between atoms: _514  and  _515
REMARK  207  A    between atoms: _515  and  _516
REMARK  208  A    between atoms: _516  and  _517
REMARK  209  A    between atoms: _521  and  _523
REMARK  210  A    between atoms: _523  and  _524
REMARK  211  A    between atoms: _523  and  _526
REMARK  212  A    between atoms: _526  and  _527
REMARK  213  A    between atoms: _529  and  _531
REMARK  214  A    between atoms: _531  and  _532
REMARK  215  A    between atoms: _531  and  _534
REMARK  216  A    between atoms: _534  and  _535
REMARK  217  A    between atoms: _538  and  _540
REMARK  218  A    between atoms: _540  and  _541
REMARK  219  A    between atoms: _540  and  _543
REMARK  220  A    between atoms: _543  and  _544
REMARK  221  A    between atoms: _544  and  _545
REMARK  222  A    between atoms: _548  and  _550
REMARK  223  A    between atoms: _550  and  _551
REMARK  224  A    between atoms: _554  and  _556
REMARK  225  A    between atoms: _556  and  _557
REMARK  226  A    between atoms: _556  and  _559
REMARK  227  A    between atoms: _559  and  _560
REMARK  228  A    between atoms: _562  and  _564
REMARK  229  A    between atoms: _564  and  _565
REMARK  230  A    between atoms: _567  and  _569
REMARK  231  A    between atoms: _569  and  _570
REMARK  232  A    between atoms: _569  and  _572
REMARK  233  A    between atoms: _572  and  _573
REMARK  234  A    between atoms: _576  and  _578
REMARK  235  A    between atoms: _578  and  _579
REMARK  236  A    between atoms: _581  and  _583
REMARK  237  A    between atoms: _583  and  _584
REMARK  238  A    between atoms: _583  and  _586
REMARK  239  A    between atoms: _586  and  _587
REMARK  240  A    between atoms: _592  and  _594
REMARK  241  A    between atoms: _594  and  _595
REMARK  242  A    between atoms: _594  and  _597
REMARK  243  A    between atoms: _597  and  _598
REMARK  244  A    between atoms: _598  and  _599
REMARK  245  A    between atoms: _606  and  _607
REMARK  246  A    between atoms: _607  and  _623
REMARK  247  A    between atoms: _608  and  _610
REMARK  248  A    between atoms: _610  and  _611
REMARK  249  A    between atoms: _611  and  _612
REMARK  250  A    between atoms: _616  and  _618
REMARK  251  A    between atoms: _618  and  _619
REMARK  252  A    between atoms: _618  and  _626
REMARK  253  A    between atoms: _619  and  _620
REMARK  254  A    between atoms: _620  and  _621
REMARK  255  A    between atoms: _621  and  _622
REMARK  256  A    between atoms: _622  and  _623
REMARK  257  A    between atoms: _628  and  _630
REMARK  258  A    between atoms: _630  and  _631
REMARK  259  A    between atoms: _630  and  _633
REMARK  260  A    between atoms: _633  and  _634
REMARK  261  A    between atoms: _637  and  _639
REMARK  262  A    between atoms: _639  and  _640
REMARK  263  A    between atoms: _642  and  _644
REMARK  264  A    between atoms: _644  and  _645
REMARK  265  A    between atoms: _648  and  _650
REMARK  266  A    between atoms: _650  and  _651
REMARK  267  A    between atoms: _650  and  _653
REMARK  268  A    between atoms: _653  and  _654
REMARK  269  A    between atoms: _659  and  _660
REMARK                            x       y       z     vdW  Elec       q    Type
REMARK                         _______ _______ _______ _____ _____    ______ ____
ROOT
ATOM      1  O   HOH     1      31.496  25.679  26.464  0.00  0.00    +0.000 OA
ENDROOT
TORSDOF 0
REMARK  Name = ../refined-set-2016/2pyi/2pyi_pocket.pdb
REMARK  269 active torsions:
REMARK  status: ('A' for Active; 'I' for Inactive)
REMARK    1  A    between atoms: _1  and  _3
REMARK    2  A    between atoms: _3  and  _4
REMARK    3  A    between atoms: _3  and  _6
REMARK    4  A    between atoms: _6  and  _7
REMARK    5  A    between atoms: _12  and  _13
REMARK    6  A    between atoms: _15  and  _17
REMARK    7  A    between atoms: _17  and  _18
REMARK    8  A    between atoms: _17  and  _20
REMARK    9  A    between atoms: _20  and  _21
REMARK   10  A    between atoms: _21  and  _22
REMARK   11  A    between atoms: _25  and  _27
REMARK   12  A    between atoms: _27  and  _28
REMARK   13  A    between atoms: _27  and  _30
REMARK   14  A    between atoms: _30  and  _31
REMARK   15  A    between atoms: _36  and  _38
REMARK   16  A    between atoms: _38  and  _39
REMARK   17  A    between atoms: _41  and  _43
REMARK   18  A    between atoms: _43  and  _44
REMARK   19  A    between atoms: _46  and  _48
REMARK   20  A    between atoms: _48  and  _49
REMARK   21  A    between atoms: _48  and  _51
REMARK   22  A    between atoms: _51  and  _52
REMARK   23  A    between atoms: _55  and  _57
REMARK   24  A    between atoms: _57  and  _58
REMARK   25  A    between atoms: _60  and  _62
REMARK   26  A    between atoms: _62  and  _63
REMARK   27  A    between atoms: _62  and  _65
REMARK   28  A    between atoms: _65  and  _66
REMARK   29  A    between atoms: _66  and  _67
REMARK   30  A    between atoms: _67  and  _68
REMARK   31  A    between atoms: _77  and  _79
REMARK   32  A    between atoms: _79  and  _80
REMARK   33  A    between atoms: _79  and  _82
REMARK   34  A    between atoms: _82  and  _83
REMARK   35  A    between atoms: _86  and  _88
REMARK   36  A    between atoms: _88  and  _89
REMARK   37  A    between atoms: _92  and  _94
REMARK   38  A    between atoms: _94  and  _95
REMARK   39  A    between atoms: _94  and  _97
REMARK   40  A    between atoms: _97  and  _98
REMARK   41  A    between atoms: _104  and  _106
REMARK   42  A    between atoms: _106  and  _107
REMARK   43  A    between atoms: _106  and  _109
REMARK   44  A    between atoms: _109  and  _110
REMARK   45  A    between atoms: _115  and  _116
REMARK   46  A    between atoms: _119  and  _120
REMARK   47  A    between atoms: _125  and  _127
REMARK   48  A    between atoms: _127  and  _128
REMARK   49  A    between atoms: _127  and  _130
REMARK   50  A    between atoms: _130  and  _131
REMARK   51  A    between atoms: _136  and  _138
REMARK   52  A    between atoms: _138  and  _139
REMARK   53  A    between atoms: _138  and  _141
REMARK   54  A    between atoms: _141  and  _142
REMARK   55  A    between atoms: _145  and  _147
REMARK   56  A    between atoms: _147  and  _148
REMARK   57  A    between atoms: _147  and  _150
REMARK   58  A    between atoms: _150  and  _151
REMARK   59  A    between atoms: _156  and  _158
REMARK   60  A    between atoms: _158  and  _159
REMARK   61  A    between atoms: _158  and  _161
REMARK   62  A    between atoms: _161  and  _162
REMARK   63  A    between atoms: _168  and  _170
REMARK   64  A    between atoms: _170  and  _171
REMARK   65  A    between atoms: _170  and  _173
REMARK   66  A    between atoms: _173  and  _174
REMARK   67  A    between atoms: _180  and  _182
REMARK   68  A    between atoms: _182  and  _183
REMARK   69  A    between atoms: _182  and  _185
REMARK   70  A    between atoms: _185  and  _186
REMARK   71  A    between atoms: _186  and  _187
REMARK   72  A    between atoms: _190  and  _192
REMARK   73  A    between atoms: _192  and  _193
REMARK   74  A    between atoms: _195  and  _197
REMARK   75  A    between atoms: _197  and  _198
REMARK   76  A    between atoms: _197  and  _200
REMARK   77  A    between atoms: _200  and  _201
REMARK   78  A    between atoms: _201  and  _202
REMARK   79  A    between atoms: _202  and  _203
REMARK   80  A    between atoms: _203  and  _204
REMARK   81  A    between atoms: _208  and  _210
REMARK   82  A    between atoms: _210  and  _211
REMARK   83  A    between atoms: _210  and  _213
REMARK   84  A    between atoms: _213  and  _214
REMARK   85  A    between atoms: _214  and  _215
REMARK   86  A    between atoms: _215  and  _216
REMARK   87  A    between atoms: _225  and  _227
REMARK   88  A    between atoms: _227  and  _228
REMARK   89  A    between atoms: _227  and  _230
REMARK   90  A    between atoms: _230  and  _231
REMARK   91  A    between atoms: _231  and  _232
REMARK   92  A    between atoms: _235  and  _237
REMARK   93  A    between atoms: _237  and  _238
REMARK   94  A    between atoms: _237  and  _240
REMARK   95  A    between atoms: _240  and  _241
REMARK   96  A    between atoms: _246  and  _248
REMARK   97  A    between atoms: _248  and  _249
REMARK   98  A    between atoms: _248  and  _251
REMARK   99  A    between atoms: _251  and  _252
REMARK  100  A    between atoms: _255  and  _257
REMARK  101  A    between atoms: _257  and  _258
REMARK  102  A    between atoms: _257  and  _260
REMARK  103  A    between atoms: _260  and  _261
REMARK  104  A    between atoms: _264  and  _266
REMARK  105  A    between atoms: _266  and  _267
REMARK  106  A    between atoms: _266  and  _269
REMARK  107  A    between atoms: _269  and  _270
REMARK  108  A    between atoms: _275  and  _277
REMARK  109  A    between atoms: _277  and  _278
REMARK  110  A    between atoms: _277  and  _280
REMARK  111  A    between atoms: _280  and  _281
REMARK  112  A    between atoms: _284  and  _286
REMARK  113  A    between atoms: _286  and  _287
REMARK  114  A    between atoms: _286  and  _289
REMARK  115  A    between atoms: _289  and  _290
REMARK  116  A    between atoms: _295  and  _297
REMARK  117  A    between atoms: _297  and  _298
REMARK  118  A    between atoms: _297  and  _300
REMARK  119  A    between atoms: _300  and  _301
REMARK  120  A    between atoms: _306  and  _308
REMARK  121  A    between atoms: _308  and  _309
REMARK  122  A    between atoms: _308  and  _311
REMARK  123  A    between atoms: _311  and  _312
REMARK  124  A    between atoms: _315  and  _317
REMARK  125  A    between atoms: _317  and  _318
REMARK  126  A    between atoms: _317  and  _320
REMARK  127  A    between atoms: _323  and  _325
REMARK  128  A    between atoms: _325  and  _326
REMARK  129  A    between atoms: _325  and  _328
REMARK  130  A    between atoms: _328  and  _329
REMARK  131  A    between atoms: _333  and  _334
REMARK  132  A    between atoms: _339  and  _341
REMARK  133  A    between atoms: _341  and  _342
REMARK  134  A    between atoms: _341  and  _344
REMARK  135  A    between atoms: _344  and  _345
REMARK  136  A    between atoms: _345  and  _346
REMARK  137  A    between atoms: _349  and  _351
REMARK  138  A    between atoms: _351  and  _352
REMARK  139  A    between atoms: _355  and  _357
REMARK  140  A    between atoms: _357  and  _358
REMARK  141  A    between atoms: _357  and  _360
REMARK  142  A    between atoms: _360  and  _361
REMARK  143  A    between atoms: _364  and  _366
REMARK  144  A    between atoms: _366  and  _367
REMARK  145  A    between atoms: _366  and  _369
REMARK  146  A    between atoms: _369  and  _370
REMARK  147  A    between atoms: _370  and  _371
REMARK  148  A    between atoms: _374  and  _376
REMARK  149  A    between atoms: _376  and  _377
REMARK  150  A    between atoms: _376  and  _379
REMARK  151  A    between atoms: _379  and  _380
REMARK  152  A    between atoms: _385  and  _387
REMARK  153  A    between atoms: _387  and  _388
REMARK  154  A    between atoms: _390  and  _392
REMARK  155  A    between atoms: _392  and  _393
REMARK  156  A    between atoms: _392  and  _395
REMARK  157  A    between atoms: _398  and  _400
REMARK  158  A    between atoms: _400  and  _401
REMARK  159  A    between atoms: _404  and  _406
REMARK  160  A    between atoms: _406  and  _407
REMARK  161  A    between atoms: _406  and  _409
REMARK  162  A    between atoms: _409  and  _410
REMARK  163  A    between atoms: _415  and  _417
REMARK  164  A    between atoms: _417  and  _418
REMARK  165  A    between atoms: _417  and  _420
REMARK  166  A    between atoms: _420  and  _421
REMARK  167  A    between atoms: _421  and  _422
REMARK  168  A    between atoms: _422  and  _423
REMARK  169  A    between atoms: _423  and  _424
REMARK  170  A    between atoms: _428  and  _430
REMARK  171  A    between atoms: _430  and  _431
REMARK  172  A    between atoms: _430  and  _433
REMARK  173  A    between atoms: _433  and  _434
REMARK  174  A    between atoms: _437  and  _439
REMARK  175  A    between atoms: _439  and  _440
REMARK  176  A    between atoms: _439  and  _442
REMARK  177  A    between atoms: _442  and  _443
REMARK  178  A    between atoms: _448  and  _450
REMARK  179  A    between atoms: _450  and  _451
REMARK  180  A    between atoms: _453  and  _455
REMARK  181  A    between atoms: _455  and  _456
REMARK  182  A    between atoms: _455  and  _458
REMARK  183  A    between atoms: _458  and  _459
REMARK  184  A    between atoms: _459  and  _460
REMARK  185  A    between atoms: _460  and  _461
REMARK  186  A    between atoms: _461  and  _462
REMARK  187  A    between atoms: _466  and  _468
REMARK  188  A    between atoms: _468  and  _469
REMARK  189  A    between atoms: _468  and  _471
REMARK  190  A    between atoms: _471  and  _472
REMARK  191  A    between atoms: _472  and  _473
REMARK  192  A    between atoms: _473  and  _474
REMARK  193  A    between atoms: _483  and  _485
REMARK  194  A    between atoms: _485  and  _486
REMARK  195  A    between atoms: _485  and  _488
REMARK  196  A    between atoms: _488  and  _489
REMARK  197  A    between atoms: _494  and  _496
REMARK  198  A    between atoms: _496  and  _497
REMARK  199  A    between atoms: _496  and  _499
REMARK  200  A    between atoms: _499  and  _500
REMARK  201  A    between atoms: _505  and  _506
REMARK  202  A    between atoms: _508  and  _510
REMARK  203  A    between atoms: _510  and  _511
REMARK  204  A    between atoms: _510  and  _513
REMARK  205  A    between atoms: _513  and  _514
REMARK  206  A    between atoms: _514  and  _515
REMARK  207  A    between atoms: _515  and  _516
REMARK  208  A    between atoms: _516  and  _517
REMARK  209  A    between atoms: _521  and  _523
REMARK  210  A    between atoms: _523  and  _524
REMARK  211  A    between atoms: _523  and  _526
REMARK  212  A    between atoms: _526  and  _527
REMARK  213  A    between atoms: _529  and  _531
REMARK  214  A    between atoms: _531  and  _532
REMARK  215  A    between atoms: _531  and  _534
REMARK  216  A    between atoms: _534  and  _535
REMARK  217  A    between atoms: _538  and  _540
REMARK  218  A    between atoms: _540  and  _541
REMARK  219  A    between atoms: _540  and  _543
REMARK  220  A    between atoms: _543  and  _544
REMARK  221  A    between atoms: _544  and  _545
REMARK  222  A    between atoms: _548  and  _550
REMARK  223  A    between atoms: _550  and  _551
REMARK  224  A    between atoms: _554  and  _556
REMARK  225  A    between atoms: _556  and  _557
REMARK  226  A    between atoms: _556  and  _559
REMARK  227  A    between atoms: _559  and  _560
REMARK  228  A    between atoms: _562  and  _564
REMARK  229  A    between atoms: _564  and  _565
REMARK  230  A    between atoms: _567  and  _569
REMARK  231  A    between atoms: _569  and  _570
REMARK  232  A    between atoms: _569  and  _572
REMARK  233  A    between atoms: _572  and  _573
REMARK  234  A    between atoms: _576  and  _578
REMARK  235  A    between atoms: _578  and  _579
REMARK  236  A    between atoms: _581  and  _583
REMARK  237  A    between atoms: _583  and  _584
REMARK  238  A    between atoms: _583  and  _586
REMARK  239  A    between atoms: _586  and  _587
REMARK  240  A    between atoms: _592  and  _594
REMARK  241  A    between atoms: _594  and  _595
REMARK  242  A    between atoms: _594  and  _597
REMARK  243  A    between atoms: _597  and  _598
REMARK  244  A    between atoms: _598  and  _599
REMARK  245  A    between atoms: _606  and  _607
REMARK  246  A    between atoms: _607  and  _623
REMARK  247  A    between atoms: _608  and  _610
REMARK  248  A    between atoms: _610  and  _611
REMARK  249  A    between atoms: _611  and  _612
REMARK  250  A    between atoms: _616  and  _618
REMARK  251  A    between atoms: _618  and  _619
REMARK  252  A    between atoms: _618  and  _626
REMARK  253  A    between atoms: _619  and  _620
REMARK  254  A    between atoms: _620  and  _621
REMARK  255  A    between atoms: _621  and  _622
REMARK  256  A    between atoms: _622  and  _623
REMARK  257  A    between atoms: _628  and  _630
REMARK  258  A    between atoms: _630  and  _631
REMARK  259  A    between atoms: _630  and  _633
REMARK  260  A    between atoms: _633  and  _634
REMARK  261  A    between atoms: _637  and  _639
REMARK  262  A    between atoms: _639  and  _640
REMARK  263  A    between atoms: _642  and  _644
REMARK  264  A    between atoms: _644  and  _645
REMARK  265  A    between atoms: _648  and  _650
REMARK  266  A    between atoms: _650  and  _651
REMARK  267  A    between atoms: _650  and  _653
REMARK  268  A    between atoms: _653  and  _654
REMARK  269  A    between atoms: _659  and  _660
REMARK                            x       y       z     vdW  Elec       q    Type
REMARK                         _______ _______ _______ _____ _____    ______ ____
ROOT
ATOM      1  O   HOH     1      33.409  27.371  28.198  0.00  0.00    +0.000 OA
ENDROOT
TORSDOF 0
REMARK  Name = ../refined-set-2016/2pyi/2pyi_pocket.pdb
REMARK  269 active torsions:
REMARK  status: ('A' for Active; 'I' for Inactive)
REMARK    1  A    between atoms: _1  and  _3
REMARK    2  A    between atoms: _3  and  _4
REMARK    3  A    between atoms: _3  and  _6
REMARK    4  A    between atoms: _6  and  _7
REMARK    5  A    between atoms: _12  and  _13
REMARK    6  A    between atoms: _15  and  _17
REMARK    7  A    between atoms: _17  and  _18
REMARK    8  A    between atoms: _17  and  _20
REMARK    9  A    between atoms: _20  and  _21
REMARK   10  A    between atoms: _21  and  _22
REMARK   11  A    between atoms: _25  and  _27
REMARK   12  A    between atoms: _27  and  _28
REMARK   13  A    between atoms: _27  and  _30
REMARK   14  A    between atoms: _30  and  _31
REMARK   15  A    between atoms: _36  and  _38
REMARK   16  A    between atoms: _38  and  _39
REMARK   17  A    between atoms: _41  and  _43
REMARK   18  A    between atoms: _43  and  _44
REMARK   19  A    between atoms: _46  and  _48
REMARK   20  A    between atoms: _48  and  _49
REMARK   21  A    between atoms: _48  and  _51
REMARK   22  A    between atoms: _51  and  _52
REMARK   23  A    between atoms: _55  and  _57
REMARK   24  A    between atoms: _57  and  _58
REMARK   25  A    between atoms: _60  and  _62
REMARK   26  A    between atoms: _62  and  _63
REMARK   27  A    between atoms: _62  and  _65
REMARK   28  A    between atoms: _65  and  _66
REMARK   29  A    between atoms: _66  and  _67
REMARK   30  A    between atoms: _67  and  _68
REMARK   31  A    between atoms: _77  and  _79
REMARK   32  A    between atoms: _79  and  _80
REMARK   33  A    between atoms: _79  and  _82
REMARK   34  A    between atoms: _82  and  _83
REMARK   35  A    between atoms: _86  and  _88
REMARK   36  A    between atoms: _88  and  _89
REMARK   37  A    between atoms: _92  and  _94
REMARK   38  A    between atoms: _94  and  _95
REMARK   39  A    between atoms: _94  and  _97
REMARK   40  A    between atoms: _97  and  _98
REMARK   41  A    between atoms: _104  and  _106
REMARK   42  A    between atoms: _106  and  _107
REMARK   43  A    between atoms: _106  and  _109
REMARK   44  A    between atoms: _109  and  _110
REMARK   45  A    between atoms: _115  and  _116
REMARK   46  A    between atoms: _119  and  _120
REMARK   47  A    between atoms: _125  and  _127
REMARK   48  A    between atoms: _127  and  _128
REMARK   49  A    between atoms: _127  and  _130
REMARK   50  A    between atoms: _130  and  _131
REMARK   51  A    between atoms: _136  and  _138
REMARK   52  A    between atoms: _138  and  _139
REMARK   53  A    between atoms: _138  and  _141
REMARK   54  A    between atoms: _141  and  _142
REMARK   55  A    between atoms: _145  and  _147
REMARK   56  A    between atoms: _147  and  _148
REMARK   57  A    between atoms: _147  and  _150
REMARK   58  A    between atoms: _150  and  _151
REMARK   59  A    between atoms: _156  and  _158
REMARK   60  A    between atoms: _158  and  _159
REMARK   61  A    between atoms: _158  and  _161
REMARK   62  A    between atoms: _161  and  _162
REMARK   63  A    between atoms: _168  and  _170
REMARK   64  A    between atoms: _170  and  _171
REMARK   65  A    between atoms: _170  and  _173
REMARK   66  A    between atoms: _173  and  _174
REMARK   67  A    between atoms: _180  and  _182
REMARK   68  A    between atoms: _182  and  _183
REMARK   69  A    between atoms: _182  and  _185
REMARK   70  A    between atoms: _185  and  _186
REMARK   71  A    between atoms: _186  and  _187
REMARK   72  A    between atoms: _190  and  _192
REMARK   73  A    between atoms: _192  and  _193
REMARK   74  A    between atoms: _195  and  _197
REMARK   75  A    between atoms: _197  and  _198
REMARK   76  A    between atoms: _197  and  _200
REMARK   77  A    between atoms: _200  and  _201
REMARK   78  A    between atoms: _201  and  _202
REMARK   79  A    between atoms: _202  and  _203
REMARK   80  A    between atoms: _203  and  _204
REMARK   81  A    between atoms: _208  and  _210
REMARK   82  A    between atoms: _210  and  _211
REMARK   83  A    between atoms: _210  and  _213
REMARK   84  A    between atoms: _213  and  _214
REMARK   85  A    between atoms: _214  and  _215
REMARK   86  A    between atoms: _215  and  _216
REMARK   87  A    between atoms: _225  and  _227
REMARK   88  A    between atoms: _227  and  _228
REMARK   89  A    between atoms: _227  and  _230
REMARK   90  A    between atoms: _230  and  _231
REMARK   91  A    between atoms: _231  and  _232
REMARK   92  A    between atoms: _235  and  _237
REMARK   93  A    between atoms: _237  and  _238
REMARK   94  A    between atoms: _237  and  _240
REMARK   95  A    between atoms: _240  and  _241
REMARK   96  A    between atoms: _246  and  _248
REMARK   97  A    between atoms: _248  and  _249
REMARK   98  A    between atoms: _248  and  _251
REMARK   99  A    between atoms: _251  and  _252
REMARK  100  A    between atoms: _255  and  _257
REMARK  101  A    between atoms: _257  and  _258
REMARK  102  A    between atoms: _257  and  _260
REMARK  103  A    between atoms: _260  and  _261
REMARK  104  A    between atoms: _264  and  _266
REMARK  105  A    between atoms: _266  and  _267
REMARK  106  A    between atoms: _266  and  _269
REMARK  107  A    between atoms: _269  and  _270
REMARK  108  A    between atoms: _275  and  _277
REMARK  109  A    between atoms: _277  and  _278
REMARK  110  A    between atoms: _277  and  _280
REMARK  111  A    between atoms: _280  and  _281
REMARK  112  A    between atoms: _284  and  _286
REMARK  113  A    between atoms: _286  and  _287
REMARK  114  A    between atoms: _286  and  _289
REMARK  115  A    between atoms: _289  and  _290
REMARK  116  A    between atoms: _295  and  _297
REMARK  117  A    between atoms: _297  and  _298
REMARK  118  A    between atoms: _297  and  _300
REMARK  119  A    between atoms: _300  and  _301
REMARK  120  A    between atoms: _306  and  _308
REMARK  121  A    between atoms: _308  and  _309
REMARK  122  A    between atoms: _308  and  _311
REMARK  123  A    between atoms: _311  and  _312
REMARK  124  A    between atoms: _315  and  _317
REMARK  125  A    between atoms: _317  and  _318
REMARK  126  A    between atoms: _317  and  _320
REMARK  127  A    between atoms: _323  and  _325
REMARK  128  A    between atoms: _325  and  _326
REMARK  129  A    between atoms: _325  and  _328
REMARK  130  A    between atoms: _328  and  _329
REMARK  131  A    between atoms: _333  and  _334
REMARK  132  A    between atoms: _339  and  _341
REMARK  133  A    between atoms: _341  and  _342
REMARK  134  A    between atoms: _341  and  _344
REMARK  135  A    between atoms: _344  and  _345
REMARK  136  A    between atoms: _345  and  _346
REMARK  137  A    between atoms: _349  and  _351
REMARK  138  A    between atoms: _351  and  _352
REMARK  139  A    between atoms: _355  and  _357
REMARK  140  A    between atoms: _357  and  _358
REMARK  141  A    between atoms: _357  and  _360
REMARK  142  A    between atoms: _360  and  _361
REMARK  143  A    between atoms: _364  and  _366
REMARK  144  A    between atoms: _366  and  _367
REMARK  145  A    between atoms: _366  and  _369
REMARK  146  A    between atoms: _369  and  _370
REMARK  147  A    between atoms: _370  and  _371
REMARK  148  A    between atoms: _374  and  _376
REMARK  149  A    between atoms: _376  and  _377
REMARK  150  A    between atoms: _376  and  _379
REMARK  151  A    between atoms: _379  and  _380
REMARK  152  A    between atoms: _385  and  _387
REMARK  153  A    between atoms: _387  and  _388
REMARK  154  A    between atoms: _390  and  _392
REMARK  155  A    between atoms: _392  and  _393
REMARK  156  A    between atoms: _392  and  _395
REMARK  157  A    between atoms: _398  and  _400
REMARK  158  A    between atoms: _400  and  _401
REMARK  159  A    between atoms: _404  and  _406
REMARK  160  A    between atoms: _406  and  _407
REMARK  161  A    between atoms: _406  and  _409
REMARK  162  A    between atoms: _409  and  _410
REMARK  163  A    between atoms: _415  and  _417
REMARK  164  A    between atoms: _417  and  _418
REMARK  165  A    between atoms: _417  and  _420
REMARK  166  A    between atoms: _420  and  _421
REMARK  167  A    between atoms: _421  and  _422
REMARK  168  A    between atoms: _422  and  _423
REMARK  169  A    between atoms: _423  and  _424
REMARK  170  A    between atoms: _428  and  _430
REMARK  171  A    between atoms: _430  and  _431
REMARK  172  A    between atoms: _430  and  _433
REMARK  173  A    between atoms: _433  and  _434
REMARK  174  A    between atoms: _437  and  _439
REMARK  175  A    between atoms: _439  and  _440
REMARK  176  A    between atoms: _439  and  _442
REMARK  177  A    between atoms: _442  and  _443
REMARK  178  A    between atoms: _448  and  _450
REMARK  179  A    between atoms: _450  and  _451
REMARK  180  A    between atoms: _453  and  _455
REMARK  181  A    between atoms: _455  and  _456
REMARK  182  A    between atoms: _455  and  _458
REMARK  183  A    between atoms: _458  and  _459
REMARK  184  A    between atoms: _459  and  _460
REMARK  185  A    between atoms: _460  and  _461
REMARK  186  A    between atoms: _461  and  _462
REMARK  187  A    between atoms: _466  and  _468
REMARK  188  A    between atoms: _468  and  _469
REMARK  189  A    between atoms: _468  and  _471
REMARK  190  A    between atoms: _471  and  _472
REMARK  191  A    between atoms: _472  and  _473
REMARK  192  A    between atoms: _473  and  _474
REMARK  193  A    between atoms: _483  and  _485
REMARK  194  A    between atoms: _485  and  _486
REMARK  195  A    between atoms: _485  and  _488
REMARK  196  A    between atoms: _488  and  _489
REMARK  197  A    between atoms: _494  and  _496
REMARK  198  A    between atoms: _496  and  _497
REMARK  199  A    between atoms: _496  and  _499
REMARK  200  A    between atoms: _499  and  _500
REMARK  201  A    between atoms: _505  and  _506
REMARK  202  A    between atoms: _508  and  _510
REMARK  203  A    between atoms: _510  and  _511
REMARK  204  A    between atoms: _510  and  _513
REMARK  205  A    between atoms: _513  and  _514
REMARK  206  A    between atoms: _514  and  _515
REMARK  207  A    between atoms: _515  and  _516
REMARK  208  A    between atoms: _516  and  _517
REMARK  209  A    between atoms: _521  and  _523
REMARK  210  A    between atoms: _523  and  _524
REMARK  211  A    between atoms: _523  and  _526
REMARK  212  A    between atoms: _526  and  _527
REMARK  213  A    between atoms: _529  and  _531
REMARK  214  A    between atoms: _531  and  _532
REMARK  215  A    between atoms: _531  and  _534
REMARK  216  A    between atoms: _534  and  _535
REMARK  217  A    between atoms: _538  and  _540
REMARK  218  A    between atoms: _540  and  _541
REMARK  219  A    between atoms: _540  and  _543
REMARK  220  A    between atoms: _543  and  _544
REMARK  221  A    between atoms: _544  and  _545
REMARK  222  A    between atoms: _548  and  _550
REMARK  223  A    between atoms: _550  and  _551
REMARK  224  A    between atoms: _554  and  _556
REMARK  225  A    between atoms: _556  and  _557
REMARK  226  A    between atoms: _556  and  _559
REMARK  227  A    between atoms: _559  and  _560
REMARK  228  A    between atoms: _562  and  _564
REMARK  229  A    between atoms: _564  and  _565
REMARK  230  A    between atoms: _567  and  _569
REMARK  231  A    between atoms: _569  and  _570
REMARK  232  A    between atoms: _569  and  _572
REMARK  233  A    between atoms: _572  and  _573
REMARK  234  A    between atoms: _576  and  _578
REMARK  235  A    between atoms: _578  and  _579
REMARK  236  A    between atoms: _581  and  _583
REMARK  237  A    between atoms: _583  and  _584
REMARK  238  A    between atoms: _583  and  _586
REMARK  239  A    between atoms: _586  and  _587
REMARK  240  A    between atoms: _592  and  _594
REMARK  241  A    between atoms: _594  and  _595
REMARK  242  A    between atoms: _594  and  _597
REMARK  243  A    between atoms: _597  and  _598
REMARK  244  A    between atoms: _598  and  _599
REMARK  245  A    between atoms: _606  and  _607
REMARK  246  A    between atoms: _607  and  _623
REMARK  247  A    between atoms: _608  and  _610
REMARK  248  A    between atoms: _610  and  _611
REMARK  249  A    between atoms: _611  and  _612
REMARK  250  A    between atoms: _616  and  _618
REMARK  251  A    between atoms: _618  and  _619
REMARK  252  A    between atoms: _618  and  _626
REMARK  253  A    between atoms: _619  and  _620
REMARK  254  A    between atoms: _620  and  _621
REMARK  255  A    between atoms: _621  and  _622
REMARK  256  A    between atoms: _622  and  _623
REMARK  257  A    between atoms: _628  and  _630
REMARK  258  A    between atoms: _630  and  _631
REMARK  259  A    between atoms: _630  and  _633
REMARK  260  A    between atoms: _633  and  _634
REMARK  261  A    between atoms: _637  and  _639
REMARK  262  A    between atoms: _639  and  _640
REMARK  263  A    between atoms: _642  and  _644
REMARK  264  A    between atoms: _644  and  _645
REMARK  265  A    between atoms: _648  and  _650
REMARK  266  A    between atoms: _650  and  _651
REMARK  267  A    between atoms: _650  and  _653
REMARK  268  A    between atoms: _653  and  _654
REMARK  269  A    between atoms: _659  and  _660
REMARK                            x       y       z     vdW  Elec       q    Type
REMARK                         _______ _______ _______ _____ _____    ______ ____
ROOT
ATOM      1  O   HOH     1      41.454  23.179  32.290  0.00  0.00    +0.000 OA
ENDROOT
TORSDOF 0
REMARK  Name = ../refined-set-2016/2pyi/2pyi_pocket.pdb
REMARK  269 active torsions:
REMARK  status: ('A' for Active; 'I' for Inactive)
REMARK    1  A    between atoms: _1  and  _3
REMARK    2  A    between atoms: _3  and  _4
REMARK    3  A    between atoms: _3  and  _6
REMARK    4  A    between atoms: _6  and  _7
REMARK    5  A    between atoms: _12  and  _13
REMARK    6  A    between atoms: _15  and  _17
REMARK    7  A    between atoms: _17  and  _18
REMARK    8  A    between atoms: _17  and  _20
REMARK    9  A    between atoms: _20  and  _21
REMARK   10  A    between atoms: _21  and  _22
REMARK   11  A    between atoms: _25  and  _27
REMARK   12  A    between atoms: _27  and  _28
REMARK   13  A    between atoms: _27  and  _30
REMARK   14  A    between atoms: _30  and  _31
REMARK   15  A    between atoms: _36  and  _38
REMARK   16  A    between atoms: _38  and  _39
REMARK   17  A    between atoms: _41  and  _43
REMARK   18  A    between atoms: _43  and  _44
REMARK   19  A    between atoms: _46  and  _48
REMARK   20  A    between atoms: _48  and  _49
REMARK   21  A    between atoms: _48  and  _51
REMARK   22  A    between atoms: _51  and  _52
REMARK   23  A    between atoms: _55  and  _57
REMARK   24  A    between atoms: _57  and  _58
REMARK   25  A    between atoms: _60  and  _62
REMARK   26  A    between atoms: _62  and  _63
REMARK   27  A    between atoms: _62  and  _65
REMARK   28  A    between atoms: _65  and  _66
REMARK   29  A    between atoms: _66  and  _67
REMARK   30  A    between atoms: _67  and  _68
REMARK   31  A    between atoms: _77  and  _79
REMARK   32  A    between atoms: _79  and  _80
REMARK   33  A    between atoms: _79  and  _82
REMARK   34  A    between atoms: _82  and  _83
REMARK   35  A    between atoms: _86  and  _88
REMARK   36  A    between atoms: _88  and  _89
REMARK   37  A    between atoms: _92  and  _94
REMARK   38  A    between atoms: _94  and  _95
REMARK   39  A    between atoms: _94  and  _97
REMARK   40  A    between atoms: _97  and  _98
REMARK   41  A    between atoms: _104  and  _106
REMARK   42  A    between atoms: _106  and  _107
REMARK   43  A    between atoms: _106  and  _109
REMARK   44  A    between atoms: _109  and  _110
REMARK   45  A    between atoms: _115  and  _116
REMARK   46  A    between atoms: _119  and  _120
REMARK   47  A    between atoms: _125  and  _127
REMARK   48  A    between atoms: _127  and  _128
REMARK   49  A    between atoms: _127  and  _130
REMARK   50  A    between atoms: _130  and  _131
REMARK   51  A    between atoms: _136  and  _138
REMARK   52  A    between atoms: _138  and  _139
REMARK   53  A    between atoms: _138  and  _141
REMARK   54  A    between atoms: _141  and  _142
REMARK   55  A    between atoms: _145  and  _147
REMARK   56  A    between atoms: _147  and  _148
REMARK   57  A    between atoms: _147  and  _150
REMARK   58  A    between atoms: _150  and  _151
REMARK   59  A    between atoms: _156  and  _158
REMARK   60  A    between atoms: _158  and  _159
REMARK   61  A    between atoms: _158  and  _161
REMARK   62  A    between atoms: _161  and  _162
REMARK   63  A    between atoms: _168  and  _170
REMARK   64  A    between atoms: _170  and  _171
REMARK   65  A    between atoms: _170  and  _173
REMARK   66  A    between atoms: _173  and  _174
REMARK   67  A    between atoms: _180  and  _182
REMARK   68  A    between atoms: _182  and  _183
REMARK   69  A    between atoms: _182  and  _185
REMARK   70  A    between atoms: _185  and  _186
REMARK   71  A    between atoms: _186  and  _187
REMARK   72  A    between atoms: _190  and  _192
REMARK   73  A    between atoms: _192  and  _193
REMARK   74  A    between atoms: _195  and  _197
REMARK   75  A    between atoms: _197  and  _198
REMARK   76  A    between atoms: _197  and  _200
REMARK   77  A    between atoms: _200  and  _201
REMARK   78  A    between atoms: _201  and  _202
REMARK   79  A    between atoms: _202  and  _203
REMARK   80  A    between atoms: _203  and  _204
REMARK   81  A    between atoms: _208  and  _210
REMARK   82  A    between atoms: _210  and  _211
REMARK   83  A    between atoms: _210  and  _213
REMARK   84  A    between atoms: _213  and  _214
REMARK   85  A    between atoms: _214  and  _215
REMARK   86  A    between atoms: _215  and  _216
REMARK   87  A    between atoms: _225  and  _227
REMARK   88  A    between atoms: _227  and  _228
REMARK   89  A    between atoms: _227  and  _230
REMARK   90  A    between atoms: _230  and  _231
REMARK   91  A    between atoms: _231  and  _232
REMARK   92  A    between atoms: _235  and  _237
REMARK   93  A    between atoms: _237  and  _238
REMARK   94  A    between atoms: _237  and  _240
REMARK   95  A    between atoms: _240  and  _241
REMARK   96  A    between atoms: _246  and  _248
REMARK   97  A    between atoms: _248  and  _249
REMARK   98  A    between atoms: _248  and  _251
REMARK   99  A    between atoms: _251  and  _252
REMARK  100  A    between atoms: _255  and  _257
REMARK  101  A    between atoms: _257  and  _258
REMARK  102  A    between atoms: _257  and  _260
REMARK  103  A    between atoms: _260  and  _261
REMARK  104  A    between atoms: _264  and  _266
REMARK  105  A    between atoms: _266  and  _267
REMARK  106  A    between atoms: _266  and  _269
REMARK  107  A    between atoms: _269  and  _270
REMARK  108  A    between atoms: _275  and  _277
REMARK  109  A    between atoms: _277  and  _278
REMARK  110  A    between atoms: _277  and  _280
REMARK  111  A    between atoms: _280  and  _281
REMARK  112  A    between atoms: _284  and  _286
REMARK  113  A    between atoms: _286  and  _287
REMARK  114  A    between atoms: _286  and  _289
REMARK  115  A    between atoms: _289  and  _290
REMARK  116  A    between atoms: _295  and  _297
REMARK  117  A    between atoms: _297  and  _298
REMARK  118  A    between atoms: _297  and  _300
REMARK  119  A    between atoms: _300  and  _301
REMARK  120  A    between atoms: _306  and  _308
REMARK  121  A    between atoms: _308  and  _309
REMARK  122  A    between atoms: _308  and  _311
REMARK  123  A    between atoms: _311  and  _312
REMARK  124  A    between atoms: _315  and  _317
REMARK  125  A    between atoms: _317  and  _318
REMARK  126  A    between atoms: _317  and  _320
REMARK  127  A    between atoms: _323  and  _325
REMARK  128  A    between atoms: _325  and  _326
REMARK  129  A    between atoms: _325  and  _328
REMARK  130  A    between atoms: _328  and  _329
REMARK  131  A    between atoms: _333  and  _334
REMARK  132  A    between atoms: _339  and  _341
REMARK  133  A    between atoms: _341  and  _342
REMARK  134  A    between atoms: _341  and  _344
REMARK  135  A    between atoms: _344  and  _345
REMARK  136  A    between atoms: _345  and  _346
REMARK  137  A    between atoms: _349  and  _351
REMARK  138  A    between atoms: _351  and  _352
REMARK  139  A    between atoms: _355  and  _357
REMARK  140  A    between atoms: _357  and  _358
REMARK  141  A    between atoms: _357  and  _360
REMARK  142  A    between atoms: _360  and  _361
REMARK  143  A    between atoms: _364  and  _366
REMARK  144  A    between atoms: _366  and  _367
REMARK  145  A    between atoms: _366  and  _369
REMARK  146  A    between atoms: _369  and  _370
REMARK  147  A    between atoms: _370  and  _371
REMARK  148  A    between atoms: _374  and  _376
REMARK  149  A    between atoms: _376  and  _377
REMARK  150  A    between atoms: _376  and  _379
REMARK  151  A    between atoms: _379  and  _380
REMARK  152  A    between atoms: _385  and  _387
REMARK  153  A    between atoms: _387  and  _388
REMARK  154  A    between atoms: _390  and  _392
REMARK  155  A    between atoms: _392  and  _393
REMARK  156  A    between atoms: _392  and  _395
REMARK  157  A    between atoms: _398  and  _400
REMARK  158  A    between atoms: _400  and  _401
REMARK  159  A    between atoms: _404  and  _406
REMARK  160  A    between atoms: _406  and  _407
REMARK  161  A    between atoms: _406  and  _409
REMARK  162  A    between atoms: _409  and  _410
REMARK  163  A    between atoms: _415  and  _417
REMARK  164  A    between atoms: _417  and  _418
REMARK  165  A    between atoms: _417  and  _420
REMARK  166  A    between atoms: _420  and  _421
REMARK  167  A    between atoms: _421  and  _422
REMARK  168  A    between atoms: _422  and  _423
REMARK  169  A    between atoms: _423  and  _424
REMARK  170  A    between atoms: _428  and  _430
REMARK  171  A    between atoms: _430  and  _431
REMARK  172  A    between atoms: _430  and  _433
REMARK  173  A    between atoms: _433  and  _434
REMARK  174  A    between atoms: _437  and  _439
REMARK  175  A    between atoms: _439  and  _440
REMARK  176  A    between atoms: _439  and  _442
REMARK  177  A    between atoms: _442  and  _443
REMARK  178  A    between atoms: _448  and  _450
REMARK  179  A    between atoms: _450  and  _451
REMARK  180  A    between atoms: _453  and  _455
REMARK  181  A    between atoms: _455  and  _456
REMARK  182  A    between atoms: _455  and  _458
REMARK  183  A    between atoms: _458  and  _459
REMARK  184  A    between atoms: _459  and  _460
REMARK  185  A    between atoms: _460  and  _461
REMARK  186  A    between atoms: _461  and  _462
REMARK  187  A    between atoms: _466  and  _468
REMARK  188  A    between atoms: _468  and  _469
REMARK  189  A    between atoms: _468  and  _471
REMARK  190  A    between atoms: _471  and  _472
REMARK  191  A    between atoms: _472  and  _473
REMARK  192  A    between atoms: _473  and  _474
REMARK  193  A    between atoms: _483  and  _485
REMARK  194  A    between atoms: _485  and  _486
REMARK  195  A    between atoms: _485  and  _488
REMARK  196  A    between atoms: _488  and  _489
REMARK  197  A    between atoms: _494  and  _496
REMARK  198  A    between atoms: _496  and  _497
REMARK  199  A    between atoms: _496  and  _499
REMARK  200  A    between atoms: _499  and  _500
REMARK  201  A    between atoms: _505  and  _506
REMARK  202  A    between atoms: _508  and  _510
REMARK  203  A    between atoms: _510  and  _511
REMARK  204  A    between atoms: _510  and  _513
REMARK  205  A    between atoms: _513  and  _514
REMARK  206  A    between atoms: _514  and  _515
REMARK  207  A    between atoms: _515  and  _516
REMARK  208  A    between atoms: _516  and  _517
REMARK  209  A    between atoms: _521  and  _523
REMARK  210  A    between atoms: _523  and  _524
REMARK  211  A    between atoms: _523  and  _526
REMARK  212  A    between atoms: _526  and  _527
REMARK  213  A    between atoms: _529  and  _531
REMARK  214  A    between atoms: _531  and  _532
REMARK  215  A    between atoms: _531  and  _534
REMARK  216  A    between atoms: _534  and  _535
REMARK  217  A    between atoms: _538  and  _540
REMARK  218  A    between atoms: _540  and  _541
REMARK  219  A    between atoms: _540  and  _543
REMARK  220  A    between atoms: _543  and  _544
REMARK  221  A    between atoms: _544  and  _545
REMARK  222  A    between atoms: _548  and  _550
REMARK  223  A    between atoms: _550  and  _551
REMARK  224  A    between atoms: _554  and  _556
REMARK  225  A    between atoms: _556  and  _557
REMARK  226  A    between atoms: _556  and  _559
REMARK  227  A    between atoms: _559  and  _560
REMARK  228  A    between atoms: _562  and  _564
REMARK  229  A    between atoms: _564  and  _565
REMARK  230  A    between atoms: _567  and  _569
REMARK  231  A    between atoms: _569  and  _570
REMARK  232  A    between atoms: _569  and  _572
REMARK  233  A    between atoms: _572  and  _573
REMARK  234  A    between atoms: _576  and  _578
REMARK  235  A    between atoms: _578  and  _579
REMARK  236  A    between atoms: _581  and  _583
REMARK  237  A    between atoms: _583  and  _584
REMARK  238  A    between atoms: _583  and  _586
REMARK  239  A    between atoms: _586  and  _587
REMARK  240  A    between atoms: _592  and  _594
REMARK  241  A    between atoms: _594  and  _595
REMARK  242  A    between atoms: _594  and  _597
REMARK  243  A    between atoms: _597  and  _598
REMARK  244  A    between atoms: _598  and  _599
REMARK  245  A    between atoms: _606  and  _607
REMARK  246  A    between atoms: _607  and  _623
REMARK  247  A    between atoms: _608  and  _610
REMARK  248  A    between atoms: _610  and  _611
REMARK  249  A    between atoms: _611  and  _612
REMARK  250  A    between atoms: _616  and  _618
REMARK  251  A    between atoms: _618  and  _619
REMARK  252  A    between atoms: _618  and  _626
REMARK  253  A    between atoms: _619  and  _620
REMARK  254  A    between atoms: _620  and  _621
REMARK  255  A    between atoms: _621  and  _622
REMARK  256  A    between atoms: _622  and  _623
REMARK  257  A    between atoms: _628  and  _630
REMARK  258  A    between atoms: _630  and  _631
REMARK  259  A    between atoms: _630  and  _633
REMARK  260  A    between atoms: _633  and  _634
REMARK  261  A    between atoms: _637  and  _639
REMARK  262  A    between atoms: _639  and  _640
REMARK  263  A    between atoms: _642  and  _644
REMARK  264  A    between atoms: _644  and  _645
REMARK  265  A    between atoms: _648  and  _650
REMARK  266  A    between atoms: _650  and  _651
REMARK  267  A    between atoms: _650  and  _653
REMARK  268  A    between atoms: _653  and  _654
REMARK  269  A    between atoms: _659  and  _660
REMARK                            x       y       z     vdW  Elec       q    Type
REMARK                         _______ _______ _______ _____ _____    ______ ____
ROOT
ATOM      1  O   HOH     1      39.476  30.840  39.582  0.00  0.00    +0.000 OA
ENDROOT
TORSDOF 0
