REMARK  Name = ../refined-set-2016/1bwa/1bwa_pocket.pdb
REMARK  236 active torsions:
REMARK  status: ('A' for Active; 'I' for Inactive)
REMARK    1  A    between atoms: _1  and  _3
REMARK    2  A    between atoms: _3  and  _4
REMARK    3  A    between atoms: _3  and  _6
REMARK    4  A    between atoms: _6  and  _7
REMARK    5  A    between atoms: _7  and  _8
REMARK    6  A    between atoms: _8  and  _9
REMARK    7  A    between atoms: _18  and  _20
REMARK    8  A    between atoms: _20  and  _21
REMARK    9  A    between atoms: _20  and  _23
REMARK   10  A    between atoms: _23  and  _24
REMARK   11  A    between atoms: _27  and  _29
REMARK   12  A    between atoms: _29  and  _30
REMARK   13  A    between atoms: _29  and  _32
REMARK   14  A    between atoms: _32  and  _33
REMARK   15  A    between atoms: _36  and  _38
REMARK   16  A    between atoms: _38  and  _39
REMARK   17  A    between atoms: _38  and  _41
REMARK   18  A    between atoms: _41  and  _42
REMARK   19  A    between atoms: _45  and  _47
REMARK   20  A    between atoms: _47  and  _48
REMARK   21  A    between atoms: _47  and  _50
REMARK   22  A    between atoms: _50  and  _51
REMARK   23  A    between atoms: _54  and  _56
REMARK   24  A    between atoms: _56  and  _57
REMARK   25  A    between atoms: _59  and  _61
REMARK   26  A    between atoms: _61  and  _62
REMARK   27  A    between atoms: _65  and  _67
REMARK   28  A    between atoms: _67  and  _68
REMARK   29  A    between atoms: _67  and  _70
REMARK   30  A    between atoms: _70  and  _71
REMARK   31  A    between atoms: _74  and  _76
REMARK   32  A    between atoms: _76  and  _77
REMARK   33  A    between atoms: _76  and  _79
REMARK   34  A    between atoms: _79  and  _80
REMARK   35  A    between atoms: _83  and  _85
REMARK   36  A    between atoms: _85  and  _86
REMARK   37  A    between atoms: _85  and  _88
REMARK   38  A    between atoms: _88  and  _89
REMARK   39  A    between atoms: _92  and  _94
REMARK   40  A    between atoms: _94  and  _95
REMARK   41  A    between atoms: _94  and  _97
REMARK   42  A    between atoms: _100  and  _102
REMARK   43  A    between atoms: _102  and  _103
REMARK   44  A    between atoms: _102  and  _105
REMARK   45  A    between atoms: _105  and  _106
REMARK   46  A    between atoms: _109  and  _111
REMARK   47  A    between atoms: _111  and  _112
REMARK   48  A    between atoms: _111  and  _114
REMARK   49  A    between atoms: _114  and  _115
REMARK   50  A    between atoms: _115  and  _116
REMARK   51  A    between atoms: _116  and  _117
REMARK   52  A    between atoms: _117  and  _118
REMARK   53  A    between atoms: _122  and  _124
REMARK   54  A    between atoms: _124  and  _125
REMARK   55  A    between atoms: _124  and  _127
REMARK   56  A    between atoms: _127  and  _128
REMARK   57  A    between atoms: _128  and  _129
REMARK   58  A    between atoms: _131  and  _133
REMARK   59  A    between atoms: _133  and  _134
REMARK   60  A    between atoms: _133  and  _136
REMARK   61  A    between atoms: _136  and  _137
REMARK   62  A    between atoms: _140  and  _142
REMARK   63  A    between atoms: _142  and  _143
REMARK   64  A    between atoms: _145  and  _147
REMARK   65  A    between atoms: _147  and  _148
REMARK   66  A    between atoms: _150  and  _152
REMARK   67  A    between atoms: _152  and  _153
REMARK   68  A    between atoms: _152  and  _155
REMARK   69  A    between atoms: _155  and  _156
REMARK   70  A    between atoms: _159  and  _161
REMARK   71  A    between atoms: _161  and  _162
REMARK   72  A    between atoms: _164  and  _166
REMARK   73  A    between atoms: _166  and  _167
REMARK   74  A    between atoms: _169  and  _171
REMARK   75  A    between atoms: _171  and  _172
REMARK   76  A    between atoms: _171  and  _174
REMARK   77  A    between atoms: _174  and  _175
REMARK   78  A    between atoms: _181  and  _183
REMARK   79  A    between atoms: _183  and  _184
REMARK   80  A    between atoms: _183  and  _186
REMARK   81  A    between atoms: _186  and  _187
REMARK   82  A    between atoms: _190  and  _192
REMARK   83  A    between atoms: _192  and  _193
REMARK   84  A    between atoms: _192  and  _195
REMARK   85  A    between atoms: _195  and  _196
REMARK   86  A    between atoms: _200  and  _201
REMARK   87  A    between atoms: _206  and  _208
REMARK   88  A    between atoms: _208  and  _209
REMARK   89  A    between atoms: _208  and  _211
REMARK   90  A    between atoms: _211  and  _212
REMARK   91  A    between atoms: _216  and  _217
REMARK   92  A    between atoms: _222  and  _224
REMARK   93  A    between atoms: _224  and  _225
REMARK   94  A    between atoms: _224  and  _227
REMARK   95  A    between atoms: _227  and  _228
REMARK   96  A    between atoms: _234  and  _236
REMARK   97  A    between atoms: _236  and  _237
REMARK   98  A    between atoms: _236  and  _239
REMARK   99  A    between atoms: _239  and  _240
REMARK  100  A    between atoms: _245  and  _247
REMARK  101  A    between atoms: _247  and  _248
REMARK  102  A    between atoms: _247  and  _250
REMARK  103  A    between atoms: _253  and  _255
REMARK  104  A    between atoms: _255  and  _256
REMARK  105  A    between atoms: _255  and  _258
REMARK  106  A    between atoms: _258  and  _259
REMARK  107  A    between atoms: _262  and  _264
REMARK  108  A    between atoms: _264  and  _265
REMARK  109  A    between atoms: _267  and  _269
REMARK  110  A    between atoms: _269  and  _270
REMARK  111  A    between atoms: _269  and  _272
REMARK  112  A    between atoms: _272  and  _273
REMARK  113  A    between atoms: _273  and  _274
REMARK  114  A    between atoms: _274  and  _275
REMARK  115  A    between atoms: _284  and  _286
REMARK  116  A    between atoms: _286  and  _287
REMARK  117  A    between atoms: _286  and  _289
REMARK  118  A    between atoms: _289  and  _290
REMARK  119  A    between atoms: _295  and  _297
REMARK  120  A    between atoms: _297  and  _298
REMARK  121  A    between atoms: _297  and  _300
REMARK  122  A    between atoms: _300  and  _301
REMARK  123  A    between atoms: _301  and  _302
REMARK  124  A    between atoms: _302  and  _303
REMARK  125  A    between atoms: _312  and  _314
REMARK  126  A    between atoms: _314  and  _315
REMARK  127  A    between atoms: _314  and  _317
REMARK  128  A    between atoms: _317  and  _318
REMARK  129  A    between atoms: _321  and  _323
REMARK  130  A    between atoms: _323  and  _324
REMARK  131  A    between atoms: _323  and  _326
REMARK  132  A    between atoms: _326  and  _327
REMARK  133  A    between atoms: _330  and  _332
REMARK  134  A    between atoms: _332  and  _333
REMARK  135  A    between atoms: _332  and  _335
REMARK  136  A    between atoms: _335  and  _336
REMARK  137  A    between atoms: _339  and  _341
REMARK  138  A    between atoms: _341  and  _342
REMARK  139  A    between atoms: _341  and  _344
REMARK  140  A    between atoms: _344  and  _345
REMARK  141  A    between atoms: _348  and  _350
REMARK  142  A    between atoms: _350  and  _351
REMARK  143  A    between atoms: _353  and  _355
REMARK  144  A    between atoms: _355  and  _356
REMARK  145  A    between atoms: _359  and  _361
REMARK  146  A    between atoms: _361  and  _362
REMARK  147  A    between atoms: _361  and  _364
REMARK  148  A    between atoms: _364  and  _365
REMARK  149  A    between atoms: _368  and  _370
REMARK  150  A    between atoms: _370  and  _371
REMARK  151  A    between atoms: _370  and  _373
REMARK  152  A    between atoms: _373  and  _374
REMARK  153  A    between atoms: _377  and  _379
REMARK  154  A    between atoms: _379  and  _380
REMARK  155  A    between atoms: _379  and  _382
REMARK  156  A    between atoms: _382  and  _383
REMARK  157  A    between atoms: _386  and  _388
REMARK  158  A    between atoms: _388  and  _389
REMARK  159  A    between atoms: _388  and  _391
REMARK  160  A    between atoms: _394  and  _396
REMARK  161  A    between atoms: _396  and  _397
REMARK  162  A    between atoms: _396  and  _399
REMARK  163  A    between atoms: _399  and  _400
REMARK  164  A    between atoms: _403  and  _405
REMARK  165  A    between atoms: _405  and  _406
REMARK  166  A    between atoms: _405  and  _408
REMARK  167  A    between atoms: _408  and  _409
REMARK  168  A    between atoms: _409  and  _410
REMARK  169  A    between atoms: _410  and  _411
REMARK  170  A    between atoms: _411  and  _412
REMARK  171  A    between atoms: _416  and  _418
REMARK  172  A    between atoms: _418  and  _419
REMARK  173  A    between atoms: _418  and  _421
REMARK  174  A    between atoms: _421  and  _422
REMARK  175  A    between atoms: _422  and  _423
REMARK  176  A    between atoms: _425  and  _427
REMARK  177  A    between atoms: _427  and  _428
REMARK  178  A    between atoms: _427  and  _430
REMARK  179  A    between atoms: _430  and  _431
REMARK  180  A    between atoms: _434  and  _436
REMARK  181  A    between atoms: _436  and  _437
REMARK  182  A    between atoms: _439  and  _441
REMARK  183  A    between atoms: _441  and  _442
REMARK  184  A    between atoms: _444  and  _446
REMARK  185  A    between atoms: _446  and  _447
REMARK  186  A    between atoms: _446  and  _449
REMARK  187  A    between atoms: _449  and  _450
REMARK  188  A    between atoms: _453  and  _455
REMARK  189  A    between atoms: _455  and  _456
REMARK  190  A    between atoms: _458  and  _460
REMARK  191  A    between atoms: _460  and  _461
REMARK  192  A    between atoms: _463  and  _465
REMARK  193  A    between atoms: _465  and  _466
REMARK  194  A    between atoms: _465  and  _468
REMARK  195  A    between atoms: _468  and  _469
REMARK  196  A    between atoms: _475  and  _477
REMARK  197  A    between atoms: _477  and  _478
REMARK  198  A    between atoms: _477  and  _480
REMARK  199  A    between atoms: _480  and  _481
REMARK  200  A    between atoms: _484  and  _486
REMARK  201  A    between atoms: _486  and  _487
REMARK  202  A    between atoms: _486  and  _489
REMARK  203  A    between atoms: _489  and  _490
REMARK  204  A    between atoms: _494  and  _495
REMARK  205  A    between atoms: _500  and  _502
REMARK  206  A    between atoms: _502  and  _503
REMARK  207  A    between atoms: _502  and  _505
REMARK  208  A    between atoms: _505  and  _506
REMARK  209  A    between atoms: _510  and  _511
REMARK  210  A    between atoms: _516  and  _518
REMARK  211  A    between atoms: _518  and  _519
REMARK  212  A    between atoms: _518  and  _521
REMARK  213  A    between atoms: _521  and  _522
REMARK  214  A    between atoms: _528  and  _530
REMARK  215  A    between atoms: _530  and  _531
REMARK  216  A    between atoms: _530  and  _533
REMARK  217  A    between atoms: _533  and  _534
REMARK  218  A    between atoms: _539  and  _541
REMARK  219  A    between atoms: _541  and  _542
REMARK  220  A    between atoms: _541  and  _544
REMARK  221  A    between atoms: _547  and  _549
REMARK  222  A    between atoms: _549  and  _550
REMARK  223  A    between atoms: _549  and  _552
REMARK  224  A    between atoms: _552  and  _553
REMARK  225  A    between atoms: _556  and  _558
REMARK  226  A    between atoms: _558  and  _559
REMARK  227  A    between atoms: _561  and  _563
REMARK  228  A    between atoms: _563  and  _564
REMARK  229  A    between atoms: _563  and  _566
REMARK  230  A    between atoms: _566  and  _567
REMARK  231  A    between atoms: _567  and  _568
REMARK  232  A    between atoms: _568  and  _569
REMARK  233  A    between atoms: _578  and  _580
REMARK  234  A    between atoms: _580  and  _581
REMARK  235  A    between atoms: _580  and  _583
REMARK  236  A    between atoms: _583  and  _584
REMARK                            x       y       z     vdW  Elec       q    Type
REMARK                         _______ _______ _______ _____ _____    ______ ____
ROOT
ATOM      1  NE  ARG A   1      -6.285  25.029  22.767  0.00  0.00    -0.265 N 
ATOM      2  CZ  ARG A   1      -6.973  23.949  23.103  0.00  0.00    +0.342 C 
ATOM      3  NH2 ARG A   1      -6.318  22.819  23.418  0.00  0.00    -0.292 N 
ATOM      4 HH21 ARG A   1      -6.851  21.966  23.683  0.00  0.00    +0.255 HD
ATOM      5 HH22 ARG A   1      -5.278  22.797  23.397  0.00  0.00    +0.255 HD
ATOM      6  NH1 ARG A   1      -8.306  24.038  23.103  0.00  0.00    -0.292 N 
ATOM      7 HH11 ARG A   1      -8.882  23.212  23.361  0.00  0.00    +0.255 HD
ATOM      8 HH12 ARG A   1      -8.767  24.934  22.845  0.00  0.00    +0.255 HD
ATOM      9  HE  ARG A   1      -6.785  25.844  22.358  0.00  0.00    +0.259 HD
ENDROOT
BRANCH   1  10
ATOM     10  CD  ARG A   1      -4.835  25.101  22.958  0.00  0.00    +0.174 C 
BRANCH  10  11
ATOM     11  CG  ARG A   1      -4.346  26.507  22.639  0.00  0.00    +0.045 C 
BRANCH  11  12
ATOM     12  CB  ARG A   1      -5.045  27.613  23.415  0.00  0.00    +0.029 C 
BRANCH  12  13
ATOM     13  CA  ARG A   1      -6.377  28.191  22.900  0.00  0.00    +0.133 C 
BRANCH  13  14
ATOM     14  N   ARG A   1      -6.237  28.755  21.541  0.00  0.00    -0.239 NA
ATOM     15  H   ARG A   1      -5.410  28.529  20.952  0.00  0.00    +0.142 HD
ENDBRANCH  13  14
BRANCH  13  16
ATOM     16  C   ARG A   1      -6.705  29.276  23.913  0.00  0.00    +0.224 C 
ATOM     17  O   ARG A   1      -6.050  30.301  23.921  0.00  0.00    -0.287 OA
ENDBRANCH  13  16
ENDBRANCH  12  13
ENDBRANCH  11  12
ENDBRANCH  10  11
ENDBRANCH   1  10
TORSDOF 6
REMARK  Name = ../refined-set-2016/1bwa/1bwa_pocket.pdb
REMARK  236 active torsions:
REMARK  status: ('A' for Active; 'I' for Inactive)
REMARK    1  A    between atoms: _1  and  _3
REMARK    2  A    between atoms: _3  and  _4
REMARK    3  A    between atoms: _3  and  _6
REMARK    4  A    between atoms: _6  and  _7
REMARK    5  A    between atoms: _7  and  _8
REMARK    6  A    between atoms: _8  and  _9
REMARK    7  A    between atoms: _18  and  _20
REMARK    8  A    between atoms: _20  and  _21
REMARK    9  A    between atoms: _20  and  _23
REMARK   10  A    between atoms: _23  and  _24
REMARK   11  A    between atoms: _27  and  _29
REMARK   12  A    between atoms: _29  and  _30
REMARK   13  A    between atoms: _29  and  _32
REMARK   14  A    between atoms: _32  and  _33
REMARK   15  A    between atoms: _36  and  _38
REMARK   16  A    between atoms: _38  and  _39
REMARK   17  A    between atoms: _38  and  _41
REMARK   18  A    between atoms: _41  and  _42
REMARK   19  A    between atoms: _45  and  _47
REMARK   20  A    between atoms: _47  and  _48
REMARK   21  A    between atoms: _47  and  _50
REMARK   22  A    between atoms: _50  and  _51
REMARK   23  A    between atoms: _54  and  _56
REMARK   24  A    between atoms: _56  and  _57
REMARK   25  A    between atoms: _59  and  _61
REMARK   26  A    between atoms: _61  and  _62
REMARK   27  A    between atoms: _65  and  _67
REMARK   28  A    between atoms: _67  and  _68
REMARK   29  A    between atoms: _67  and  _70
REMARK   30  A    between atoms: _70  and  _71
REMARK   31  A    between atoms: _74  and  _76
REMARK   32  A    between atoms: _76  and  _77
REMARK   33  A    between atoms: _76  and  _79
REMARK   34  A    between atoms: _79  and  _80
REMARK   35  A    between atoms: _83  and  _85
REMARK   36  A    between atoms: _85  and  _86
REMARK   37  A    between atoms: _85  and  _88
REMARK   38  A    between atoms: _88  and  _89
REMARK   39  A    between atoms: _92  and  _94
REMARK   40  A    between atoms: _94  and  _95
REMARK   41  A    between atoms: _94  and  _97
REMARK   42  A    between atoms: _100  and  _102
REMARK   43  A    between atoms: _102  and  _103
REMARK   44  A    between atoms: _102  and  _105
REMARK   45  A    between atoms: _105  and  _106
REMARK   46  A    between atoms: _109  and  _111
REMARK   47  A    between atoms: _111  and  _112
REMARK   48  A    between atoms: _111  and  _114
REMARK   49  A    between atoms: _114  and  _115
REMARK   50  A    between atoms: _115  and  _116
REMARK   51  A    between atoms: _116  and  _117
REMARK   52  A    between atoms: _117  and  _118
REMARK   53  A    between atoms: _122  and  _124
REMARK   54  A    between atoms: _124  and  _125
REMARK   55  A    between atoms: _124  and  _127
REMARK   56  A    between atoms: _127  and  _128
REMARK   57  A    between atoms: _128  and  _129
REMARK   58  A    between atoms: _131  and  _133
REMARK   59  A    between atoms: _133  and  _134
REMARK   60  A    between atoms: _133  and  _136
REMARK   61  A    between atoms: _136  and  _137
REMARK   62  A    between atoms: _140  and  _142
REMARK   63  A    between atoms: _142  and  _143
REMARK   64  A    between atoms: _145  and  _147
REMARK   65  A    between atoms: _147  and  _148
REMARK   66  A    between atoms: _150  and  _152
REMARK   67  A    between atoms: _152  and  _153
REMARK   68  A    between atoms: _152  and  _155
REMARK   69  A    between atoms: _155  and  _156
REMARK   70  A    between atoms: _159  and  _161
REMARK   71  A    between atoms: _161  and  _162
REMARK   72  A    between atoms: _164  and  _166
REMARK   73  A    between atoms: _166  and  _167
REMARK   74  A    between atoms: _169  and  _171
REMARK   75  A    between atoms: _171  and  _172
REMARK   76  A    between atoms: _171  and  _174
REMARK   77  A    between atoms: _174  and  _175
REMARK   78  A    between atoms: _181  and  _183
REMARK   79  A    between atoms: _183  and  _184
REMARK   80  A    between atoms: _183  and  _186
REMARK   81  A    between atoms: _186  and  _187
REMARK   82  A    between atoms: _190  and  _192
REMARK   83  A    between atoms: _192  and  _193
REMARK   84  A    between atoms: _192  and  _195
REMARK   85  A    between atoms: _195  and  _196
REMARK   86  A    between atoms: _200  and  _201
REMARK   87  A    between atoms: _206  and  _208
REMARK   88  A    between atoms: _208  and  _209
REMARK   89  A    between atoms: _208  and  _211
REMARK   90  A    between atoms: _211  and  _212
REMARK   91  A    between atoms: _216  and  _217
REMARK   92  A    between atoms: _222  and  _224
REMARK   93  A    between atoms: _224  and  _225
REMARK   94  A    between atoms: _224  and  _227
REMARK   95  A    between atoms: _227  and  _228
REMARK   96  A    between atoms: _234  and  _236
REMARK   97  A    between atoms: _236  and  _237
REMARK   98  A    between atoms: _236  and  _239
REMARK   99  A    between atoms: _239  and  _240
REMARK  100  A    between atoms: _245  and  _247
REMARK  101  A    between atoms: _247  and  _248
REMARK  102  A    between atoms: _247  and  _250
REMARK  103  A    between atoms: _253  and  _255
REMARK  104  A    between atoms: _255  and  _256
REMARK  105  A    between atoms: _255  and  _258
REMARK  106  A    between atoms: _258  and  _259
REMARK  107  A    between atoms: _262  and  _264
REMARK  108  A    between atoms: _264  and  _265
REMARK  109  A    between atoms: _267  and  _269
REMARK  110  A    between atoms: _269  and  _270
REMARK  111  A    between atoms: _269  and  _272
REMARK  112  A    between atoms: _272  and  _273
REMARK  113  A    between atoms: _273  and  _274
REMARK  114  A    between atoms: _274  and  _275
REMARK  115  A    between atoms: _284  and  _286
REMARK  116  A    between atoms: _286  and  _287
REMARK  117  A    between atoms: _286  and  _289
REMARK  118  A    between atoms: _289  and  _290
REMARK  119  A    between atoms: _295  and  _297
REMARK  120  A    between atoms: _297  and  _298
REMARK  121  A    between atoms: _297  and  _300
REMARK  122  A    between atoms: _300  and  _301
REMARK  123  A    between atoms: _301  and  _302
REMARK  124  A    between atoms: _302  and  _303
REMARK  125  A    between atoms: _312  and  _314
REMARK  126  A    between atoms: _314  and  _315
REMARK  127  A    between atoms: _314  and  _317
REMARK  128  A    between atoms: _317  and  _318
REMARK  129  A    between atoms: _321  and  _323
REMARK  130  A    between atoms: _323  and  _324
REMARK  131  A    between atoms: _323  and  _326
REMARK  132  A    between atoms: _326  and  _327
REMARK  133  A    between atoms: _330  and  _332
REMARK  134  A    between atoms: _332  and  _333
REMARK  135  A    between atoms: _332  and  _335
REMARK  136  A    between atoms: _335  and  _336
REMARK  137  A    between atoms: _339  and  _341
REMARK  138  A    between atoms: _341  and  _342
REMARK  139  A    between atoms: _341  and  _344
REMARK  140  A    between atoms: _344  and  _345
REMARK  141  A    between atoms: _348  and  _350
REMARK  142  A    between atoms: _350  and  _351
REMARK  143  A    between atoms: _353  and  _355
REMARK  144  A    between atoms: _355  and  _356
REMARK  145  A    between atoms: _359  and  _361
REMARK  146  A    between atoms: _361  and  _362
REMARK  147  A    between atoms: _361  and  _364
REMARK  148  A    between atoms: _364  and  _365
REMARK  149  A    between atoms: _368  and  _370
REMARK  150  A    between atoms: _370  and  _371
REMARK  151  A    between atoms: _370  and  _373
REMARK  152  A    between atoms: _373  and  _374
REMARK  153  A    between atoms: _377  and  _379
REMARK  154  A    between atoms: _379  and  _380
REMARK  155  A    between atoms: _379  and  _382
REMARK  156  A    between atoms: _382  and  _383
REMARK  157  A    between atoms: _386  and  _388
REMARK  158  A    between atoms: _388  and  _389
REMARK  159  A    between atoms: _388  and  _391
REMARK  160  A    between atoms: _394  and  _396
REMARK  161  A    between atoms: _396  and  _397
REMARK  162  A    between atoms: _396  and  _399
REMARK  163  A    between atoms: _399  and  _400
REMARK  164  A    between atoms: _403  and  _405
REMARK  165  A    between atoms: _405  and  _406
REMARK  166  A    between atoms: _405  and  _408
REMARK  167  A    between atoms: _408  and  _409
REMARK  168  A    between atoms: _409  and  _410
REMARK  169  A    between atoms: _410  and  _411
REMARK  170  A    between atoms: _411  and  _412
REMARK  171  A    between atoms: _416  and  _418
REMARK  172  A    between atoms: _418  and  _419
REMARK  173  A    between atoms: _418  and  _421
REMARK  174  A    between atoms: _421  and  _422
REMARK  175  A    between atoms: _422  and  _423
REMARK  176  A    between atoms: _425  and  _427
REMARK  177  A    between atoms: _427  and  _428
REMARK  178  A    between atoms: _427  and  _430
REMARK  179  A    between atoms: _430  and  _431
REMARK  180  A    between atoms: _434  and  _436
REMARK  181  A    between atoms: _436  and  _437
REMARK  182  A    between atoms: _439  and  _441
REMARK  183  A    between atoms: _441  and  _442
REMARK  184  A    between atoms: _444  and  _446
REMARK  185  A    between atoms: _446  and  _447
REMARK  186  A    between atoms: _446  and  _449
REMARK  187  A    between atoms: _449  and  _450
REMARK  188  A    between atoms: _453  and  _455
REMARK  189  A    between atoms: _455  and  _456
REMARK  190  A    between atoms: _458  and  _460
REMARK  191  A    between atoms: _460  and  _461
REMARK  192  A    between atoms: _463  and  _465
REMARK  193  A    between atoms: _465  and  _466
REMARK  194  A    between atoms: _465  and  _468
REMARK  195  A    between atoms: _468  and  _469
REMARK  196  A    between atoms: _475  and  _477
REMARK  197  A    between atoms: _477  and  _478
REMARK  198  A    between atoms: _477  and  _480
REMARK  199  A    between atoms: _480  and  _481
REMARK  200  A    between atoms: _484  and  _486
REMARK  201  A    between atoms: _486  and  _487
REMARK  202  A    between atoms: _486  and  _489
REMARK  203  A    between atoms: _489  and  _490
REMARK  204  A    between atoms: _494  and  _495
REMARK  205  A    between atoms: _500  and  _502
REMARK  206  A    between atoms: _502  and  _503
REMARK  207  A    between atoms: _502  and  _505
REMARK  208  A    between atoms: _505  and  _506
REMARK  209  A    between atoms: _510  and  _511
REMARK  210  A    between atoms: _516  and  _518
REMARK  211  A    between atoms: _518  and  _519
REMARK  212  A    between atoms: _518  and  _521
REMARK  213  A    between atoms: _521  and  _522
REMARK  214  A    between atoms: _528  and  _530
REMARK  215  A    between atoms: _530  and  _531
REMARK  216  A    between atoms: _530  and  _533
REMARK  217  A    between atoms: _533  and  _534
REMARK  218  A    between atoms: _539  and  _541
REMARK  219  A    between atoms: _541  and  _542
REMARK  220  A    between atoms: _541  and  _544
REMARK  221  A    between atoms: _547  and  _549
REMARK  222  A    between atoms: _549  and  _550
REMARK  223  A    between atoms: _549  and  _552
REMARK  224  A    between atoms: _552  and  _553
REMARK  225  A    between atoms: _556  and  _558
REMARK  226  A    between atoms: _558  and  _559
REMARK  227  A    between atoms: _561  and  _563
REMARK  228  A    between atoms: _563  and  _564
REMARK  229  A    between atoms: _563  and  _566
REMARK  230  A    between atoms: _566  and  _567
REMARK  231  A    between atoms: _567  and  _568
REMARK  232  A    between atoms: _568  and  _569
REMARK  233  A    between atoms: _578  and  _580
REMARK  234  A    between atoms: _580  and  _581
REMARK  235  A    between atoms: _580  and  _583
REMARK  236  A    between atoms: _583  and  _584
REMARK                            x       y       z     vdW  Elec       q    Type
REMARK                         _______ _______ _______ _____ _____    ______ ____
ROOT
ATOM      1  C   ALA A   6     -13.193  19.356  33.996  0.00  0.00    +0.241 C 
ATOM      2  N   ASP A   7     -13.469  18.260  34.691  0.00  0.00    -0.297 N 
ATOM      3  H   ASP A   7     -13.233  17.304  34.357  0.00  0.00    +0.150 HD
ATOM      4  O   ALA A   6     -13.466  20.466  34.413  0.00  0.00    -0.273 OA
ENDROOT
BRANCH   1   5
ATOM      5  CA  ALA A   6     -12.542  19.158  32.664  0.00  0.00    +0.149 C 
ATOM      6  CB  ALA A   6     -11.136  19.754  32.670  0.00  0.00    +0.031 C 
BRANCH   5   8
ATOM      7  C   GLY A   5     -14.237  19.168  30.973  0.00  0.00    +0.243 C 
ATOM      8  N   ALA A   6     -13.355  19.852  31.682  0.00  0.00    -0.297 N 
ATOM      9  H   ALA A   6     -13.245  20.876  31.538  0.00  0.00    +0.150 HD
ATOM     10  O   GLY A   5     -14.408  17.974  31.151  0.00  0.00    -0.273 OA
BRANCH   7  11
ATOM     11  CA  GLY A   5     -14.968  19.951  29.890  0.00  0.00    +0.176 C 
BRANCH  11  14
ATOM     12  C   THR A   4     -15.322  22.264  30.461  0.00  0.00    +0.243 C 
ATOM     13  O   THR A   4     -16.297  21.952  31.129  0.00  0.00    -0.273 OA
ATOM     14  N   GLY A   5     -14.583  21.370  29.805  0.00  0.00    -0.295 N 
ATOM     15  H   GLY A   5     -13.756  21.666  29.248  0.00  0.00    +0.150 HD
BRANCH  12  16
ATOM     16  CA  THR A   4     -14.892  23.715  30.324  0.00  0.00    +0.176 C 
BRANCH  16  19
ATOM     17  C   ASP A   3     -12.504  23.652  30.641  0.00  0.00    +0.241 C 
ATOM     18  O   ASP A   3     -12.627  22.961  31.634  0.00  0.00    -0.273 OA
ATOM     19  N   THR A   4     -13.533  24.004  29.866  0.00  0.00    -0.295 N 
ATOM     20  H   THR A   4     -13.371  24.475  28.953  0.00  0.00    +0.150 HD
BRANCH  17  21
ATOM     21  CA  ASP A   3     -11.128  24.057  30.175  0.00  0.00    +0.160 C 
BRANCH  21  23
ATOM     22  C   LEU A   2     -10.301  26.271  30.050  0.00  0.00    +0.241 C 
ATOM     23  N   ASP A   3     -10.636  25.242  30.832  0.00  0.00    -0.297 N 
ATOM     24  H   ASP A   3     -10.546  25.293  31.867  0.00  0.00    +0.150 HD
ATOM     25  O   LEU A   2     -10.620  26.387  28.872  0.00  0.00    -0.273 OA
BRANCH  22  26
ATOM     26  CA  LEU A   2      -9.453  27.320  30.673  0.00  0.00    +0.149 C 
BRANCH  26  29
ATOM     27  C   LEU A   1      -7.210  26.468  30.382  0.00  0.00    +0.238 C 
ATOM     28  O   LEU A   1      -7.369  25.691  31.312  0.00  0.00    -0.274 OA
ATOM     29  N   LEU A   2      -8.129  27.340  30.020  0.00  0.00    -0.297 N 
ATOM     30  H   LEU A   2      -7.923  28.039  29.278  0.00  0.00    +0.150 HD
BRANCH  27  31
ATOM     31  CA  LEU A   1      -5.936  26.441  29.580  0.00  0.00    +0.145 C 
BRANCH  31  32
ATOM     32  N   LEU A   1      -4.797  26.438  30.483  0.00  0.00    -0.238 NA
ATOM     33  H   LEU A   1      -4.520  25.532  30.912  0.00  0.00    +0.142 HD
ENDBRANCH  31  32
BRANCH  31  34
ATOM     34  CB  LEU A   1      -5.829  25.075  28.920  0.00  0.00    +0.026 C 
BRANCH  34  35
ATOM     35  CG  LEU A   1      -6.449  24.801  27.577  0.00  0.00    +0.002 C 
ATOM     36  CD2 LEU A   1      -6.090  23.369  27.189  0.00  0.00    +0.000 C 
ATOM     37  CD1 LEU A   1      -5.835  25.729  26.552  0.00  0.00    +0.000 C 
ENDBRANCH  34  35
ENDBRANCH  31  34
ENDBRANCH  27  31
ENDBRANCH  26  29
BRANCH  26  38
ATOM     38  CB  LEU A   2     -10.226  28.613  30.433  0.00  0.00    +0.029 C 
BRANCH  38  39
ATOM     39  CG  LEU A   2      -9.507  29.812  30.995  0.00  0.00    +0.002 C 
ATOM     40  CD2 LEU A   2      -9.456  29.736  32.514  0.00  0.00    +0.000 C 
ATOM     41  CD1 LEU A   2     -10.156  31.082  30.495  0.00  0.00    +0.000 C 
ENDBRANCH  38  39
ENDBRANCH  26  38
ENDBRANCH  22  26
ENDBRANCH  21  23
BRANCH  21  42
ATOM     42  CB  ASP A   3     -10.125  22.958  30.466  0.00  0.00    +0.143 C 
BRANCH  42  43
ATOM     43  CG  ASP A   3     -10.378  21.721  29.651  0.00  0.00    +0.367 C 
ATOM     44  OD2 ASP A   3      -9.467  20.928  29.544  0.00  0.00    -0.246 OA
ATOM     45  OD1 ASP A   3     -11.466  21.525  29.120  0.00  0.00    -0.246 OA
ENDBRANCH  42  43
ENDBRANCH  21  42
ENDBRANCH  17  21
ENDBRANCH  16  19
BRANCH  16  46
ATOM     46  CB  THR A   4     -15.914  24.520  29.482  0.00  0.00    +0.137 C 
ATOM     47  CG2 THR A   4     -15.604  26.014  29.559  0.00  0.00    +0.034 C 
BRANCH  46  48
ATOM     48  OG1 THR A   4     -15.928  24.143  28.107  0.00  0.00    -0.382 OA
ATOM     49  HG1 THR A   4     -16.165  23.185  28.031  0.00  0.00    +0.210 HD
ENDBRANCH  46  48
ENDBRANCH  16  46
ENDBRANCH  12  16
ENDBRANCH  11  14
ENDBRANCH   7  11
ENDBRANCH   5   8
ENDBRANCH   1   5
BRANCH   2  50
ATOM     50  CA  ASP A   7     -14.138  18.515  35.975  0.00  0.00    +0.160 C 
BRANCH  50  51
ATOM     51  C   ASP A   7     -13.213  19.106  36.988  0.00  0.00    +0.241 C 
ATOM     52  O   ASP A   7     -13.605  19.931  37.783  0.00  0.00    -0.273 OA
ATOM     53  N   ASP A   8     -11.971  18.641  36.934  0.00  0.00    -0.297 N 
ATOM     54  H   ASP A   8     -11.699  18.011  36.152  0.00  0.00    +0.150 HD
BRANCH  53  55
ATOM     55  CA  ASP A   8     -10.976  18.991  37.944  0.00  0.00    +0.160 C 
BRANCH  55  56
ATOM     56  C   ASP A   8      -9.825  19.745  37.318  0.00  0.00    +0.241 C 
ATOM     57  N   THR A   9      -9.037  20.433  38.118  0.00  0.00    -0.295 N 
ATOM     58  H   THR A   9      -9.261  20.490  39.132  0.00  0.00    +0.150 HD
ATOM     59  O   ASP A   8      -9.665  19.692  36.118  0.00  0.00    -0.273 OA
BRANCH  57  60
ATOM     60  CA  THR A   9      -7.853  21.118  37.604  0.00  0.00    +0.176 C 
BRANCH  60  61
ATOM     61  C   THR A   9      -6.662  20.245  37.714  0.00  0.00    +0.243 C 
ATOM     62  O   THR A   9      -6.408  19.673  38.756  0.00  0.00    -0.273 OA
ATOM     63  N   VAL A  10      -5.921  20.136  36.645  0.00  0.00    -0.297 N 
ATOM     64  H   VAL A  10      -6.155  20.659  35.777  0.00  0.00    +0.150 HD
BRANCH  63  65
ATOM     65  CA  VAL A  10      -4.750  19.256  36.703  0.00  0.00    +0.149 C 
BRANCH  65  66
ATOM     66  C   VAL A  10      -3.565  20.063  36.214  0.00  0.00    +0.241 C 
ATOM     67  N   LEU A  11      -2.496  19.973  36.975  0.00  0.00    -0.298 N 
ATOM     68  H   LEU A  11      -2.493  19.329  37.792  0.00  0.00    +0.150 HD
ATOM     69  O   VAL A  10      -3.633  20.773  35.216  0.00  0.00    -0.273 OA
BRANCH  67  70
ATOM     70  CA  LEU A  11      -1.332  20.763  36.679  0.00  0.00    +0.137 C 
BRANCH  70  71
ATOM     71  C   LEU A  11      -0.154  19.831  36.447  0.00  0.00    +0.227 C 
ATOM     72  O   LEU A  11      -0.112  18.722  36.962  0.00  0.00    -0.286 OA
ENDBRANCH  70  71
BRANCH  70  73
ATOM     73  CB  LEU A  11      -1.129  21.648  37.902  0.00  0.00    +0.028 C 
BRANCH  73  74
ATOM     74  CG  LEU A  11      -2.229  22.679  38.201  0.00  0.00    +0.002 C 
ATOM     75  CD2 LEU A  11      -1.911  23.335  39.538  0.00  0.00    +0.000 C 
ATOM     76  CD1 LEU A  11      -2.314  23.777  37.141  0.00  0.00    +0.000 C 
ENDBRANCH  73  74
ENDBRANCH  70  73
ENDBRANCH  67  70
ENDBRANCH  65  66
BRANCH  65  77
ATOM     77  CB  VAL A  10      -4.902  18.028  35.785  0.00  0.00    +0.027 C 
ATOM     78  CG2 VAL A  10      -3.805  16.993  36.034  0.00  0.00    +0.002 C 
ATOM     79  CG1 VAL A  10      -6.270  17.378  35.953  0.00  0.00    +0.002 C 
ENDBRANCH  65  77
ENDBRANCH  63  65
ENDBRANCH  60  61
BRANCH  60  80
ATOM     80  CB  THR A   9      -7.664  22.348  38.499  0.00  0.00    +0.137 C 
ATOM     81  CG2 THR A   9      -6.335  23.077  38.261  0.00  0.00    +0.034 C 
BRANCH  80  82
ATOM     82  OG1 THR A   9      -8.809  23.216  38.328  0.00  0.00    -0.382 OA
ATOM     83  HG1 THR A   9      -9.632  22.730  38.588  0.00  0.00    +0.210 HD
ENDBRANCH  80  82
ENDBRANCH  60  80
ENDBRANCH  57  60
ENDBRANCH  55  56
BRANCH  55  84
ATOM     84  CB  ASP A   8     -10.439  17.685  38.518  0.00  0.00    +0.143 C 
BRANCH  84  85
ATOM     85  CG  ASP A   8     -11.414  17.042  39.474  0.00  0.00    +0.367 C 
ATOM     86  OD2 ASP A   8     -12.236  17.751  40.060  0.00  0.00    -0.246 OA
ATOM     87  OD1 ASP A   8     -11.341  15.822  39.646  0.00  0.00    -0.246 OA
ENDBRANCH  84  85
ENDBRANCH  55  84
ENDBRANCH  53  55
ENDBRANCH  50  51
BRANCH  50  88
ATOM     88  CB  ASP A   7     -14.697  17.270  36.641  0.00  0.00    +0.143 C 
BRANCH  88  89
ATOM     89  CG  ASP A   7     -15.800  16.614  35.855  0.00  0.00    +0.367 C 
ATOM     90  OD2 ASP A   7     -15.913  15.406  36.000  0.00  0.00    -0.246 OA
ATOM     91  OD1 ASP A   7     -16.550  17.262  35.117  0.00  0.00    -0.246 OA
ENDBRANCH  88  89
ENDBRANCH  50  88
ENDBRANCH   2  50
TORSDOF 39
REMARK  Name = ../refined-set-2016/1bwa/1bwa_pocket.pdb
REMARK  236 active torsions:
REMARK  status: ('A' for Active; 'I' for Inactive)
REMARK    1  A    between atoms: _1  and  _3
REMARK    2  A    between atoms: _3  and  _4
REMARK    3  A    between atoms: _3  and  _6
REMARK    4  A    between atoms: _6  and  _7
REMARK    5  A    between atoms: _7  and  _8
REMARK    6  A    between atoms: _8  and  _9
REMARK    7  A    between atoms: _18  and  _20
REMARK    8  A    between atoms: _20  and  _21
REMARK    9  A    between atoms: _20  and  _23
REMARK   10  A    between atoms: _23  and  _24
REMARK   11  A    between atoms: _27  and  _29
REMARK   12  A    between atoms: _29  and  _30
REMARK   13  A    between atoms: _29  and  _32
REMARK   14  A    between atoms: _32  and  _33
REMARK   15  A    between atoms: _36  and  _38
REMARK   16  A    between atoms: _38  and  _39
REMARK   17  A    between atoms: _38  and  _41
REMARK   18  A    between atoms: _41  and  _42
REMARK   19  A    between atoms: _45  and  _47
REMARK   20  A    between atoms: _47  and  _48
REMARK   21  A    between atoms: _47  and  _50
REMARK   22  A    between atoms: _50  and  _51
REMARK   23  A    between atoms: _54  and  _56
REMARK   24  A    between atoms: _56  and  _57
REMARK   25  A    between atoms: _59  and  _61
REMARK   26  A    between atoms: _61  and  _62
REMARK   27  A    between atoms: _65  and  _67
REMARK   28  A    between atoms: _67  and  _68
REMARK   29  A    between atoms: _67  and  _70
REMARK   30  A    between atoms: _70  and  _71
REMARK   31  A    between atoms: _74  and  _76
REMARK   32  A    between atoms: _76  and  _77
REMARK   33  A    between atoms: _76  and  _79
REMARK   34  A    between atoms: _79  and  _80
REMARK   35  A    between atoms: _83  and  _85
REMARK   36  A    between atoms: _85  and  _86
REMARK   37  A    between atoms: _85  and  _88
REMARK   38  A    between atoms: _88  and  _89
REMARK   39  A    between atoms: _92  and  _94
REMARK   40  A    between atoms: _94  and  _95
REMARK   41  A    between atoms: _94  and  _97
REMARK   42  A    between atoms: _100  and  _102
REMARK   43  A    between atoms: _102  and  _103
REMARK   44  A    between atoms: _102  and  _105
REMARK   45  A    between atoms: _105  and  _106
REMARK   46  A    between atoms: _109  and  _111
REMARK   47  A    between atoms: _111  and  _112
REMARK   48  A    between atoms: _111  and  _114
REMARK   49  A    between atoms: _114  and  _115
REMARK   50  A    between atoms: _115  and  _116
REMARK   51  A    between atoms: _116  and  _117
REMARK   52  A    between atoms: _117  and  _118
REMARK   53  A    between atoms: _122  and  _124
REMARK   54  A    between atoms: _124  and  _125
REMARK   55  A    between atoms: _124  and  _127
REMARK   56  A    between atoms: _127  and  _128
REMARK   57  A    between atoms: _128  and  _129
REMARK   58  A    between atoms: _131  and  _133
REMARK   59  A    between atoms: _133  and  _134
REMARK   60  A    between atoms: _133  and  _136
REMARK   61  A    between atoms: _136  and  _137
REMARK   62  A    between atoms: _140  and  _142
REMARK   63  A    between atoms: _142  and  _143
REMARK   64  A    between atoms: _145  and  _147
REMARK   65  A    between atoms: _147  and  _148
REMARK   66  A    between atoms: _150  and  _152
REMARK   67  A    between atoms: _152  and  _153
REMARK   68  A    between atoms: _152  and  _155
REMARK   69  A    between atoms: _155  and  _156
REMARK   70  A    between atoms: _159  and  _161
REMARK   71  A    between atoms: _161  and  _162
REMARK   72  A    between atoms: _164  and  _166
REMARK   73  A    between atoms: _166  and  _167
REMARK   74  A    between atoms: _169  and  _171
REMARK   75  A    between atoms: _171  and  _172
REMARK   76  A    between atoms: _171  and  _174
REMARK   77  A    between atoms: _174  and  _175
REMARK   78  A    between atoms: _181  and  _183
REMARK   79  A    between atoms: _183  and  _184
REMARK   80  A    between atoms: _183  and  _186
REMARK   81  A    between atoms: _186  and  _187
REMARK   82  A    between atoms: _190  and  _192
REMARK   83  A    between atoms: _192  and  _193
REMARK   84  A    between atoms: _192  and  _195
REMARK   85  A    between atoms: _195  and  _196
REMARK   86  A    between atoms: _200  and  _201
REMARK   87  A    between atoms: _206  and  _208
REMARK   88  A    between atoms: _208  and  _209
REMARK   89  A    between atoms: _208  and  _211
REMARK   90  A    between atoms: _211  and  _212
REMARK   91  A    between atoms: _216  and  _217
REMARK   92  A    between atoms: _222  and  _224
REMARK   93  A    between atoms: _224  and  _225
REMARK   94  A    between atoms: _224  and  _227
REMARK   95  A    between atoms: _227  and  _228
REMARK   96  A    between atoms: _234  and  _236
REMARK   97  A    between atoms: _236  and  _237
REMARK   98  A    between atoms: _236  and  _239
REMARK   99  A    between atoms: _239  and  _240
REMARK  100  A    between atoms: _245  and  _247
REMARK  101  A    between atoms: _247  and  _248
REMARK  102  A    between atoms: _247  and  _250
REMARK  103  A    between atoms: _253  and  _255
REMARK  104  A    between atoms: _255  and  _256
REMARK  105  A    between atoms: _255  and  _258
REMARK  106  A    between atoms: _258  and  _259
REMARK  107  A    between atoms: _262  and  _264
REMARK  108  A    between atoms: _264  and  _265
REMARK  109  A    between atoms: _267  and  _269
REMARK  110  A    between atoms: _269  and  _270
REMARK  111  A    between atoms: _269  and  _272
REMARK  112  A    between atoms: _272  and  _273
REMARK  113  A    between atoms: _273  and  _274
REMARK  114  A    between atoms: _274  and  _275
REMARK  115  A    between atoms: _284  and  _286
REMARK  116  A    between atoms: _286  and  _287
REMARK  117  A    between atoms: _286  and  _289
REMARK  118  A    between atoms: _289  and  _290
REMARK  119  A    between atoms: _295  and  _297
REMARK  120  A    between atoms: _297  and  _298
REMARK  121  A    between atoms: _297  and  _300
REMARK  122  A    between atoms: _300  and  _301
REMARK  123  A    between atoms: _301  and  _302
REMARK  124  A    between atoms: _302  and  _303
REMARK  125  A    between atoms: _312  and  _314
REMARK  126  A    between atoms: _314  and  _315
REMARK  127  A    between atoms: _314  and  _317
REMARK  128  A    between atoms: _317  and  _318
REMARK  129  A    between atoms: _321  and  _323
REMARK  130  A    between atoms: _323  and  _324
REMARK  131  A    between atoms: _323  and  _326
REMARK  132  A    between atoms: _326  and  _327
REMARK  133  A    between atoms: _330  and  _332
REMARK  134  A    between atoms: _332  and  _333
REMARK  135  A    between atoms: _332  and  _335
REMARK  136  A    between atoms: _335  and  _336
REMARK  137  A    between atoms: _339  and  _341
REMARK  138  A    between atoms: _341  and  _342
REMARK  139  A    between atoms: _341  and  _344
REMARK  140  A    between atoms: _344  and  _345
REMARK  141  A    between atoms: _348  and  _350
REMARK  142  A    between atoms: _350  and  _351
REMARK  143  A    between atoms: _353  and  _355
REMARK  144  A    between atoms: _355  and  _356
REMARK  145  A    between atoms: _359  and  _361
REMARK  146  A    between atoms: _361  and  _362
REMARK  147  A    between atoms: _361  and  _364
REMARK  148  A    between atoms: _364  and  _365
REMARK  149  A    between atoms: _368  and  _370
REMARK  150  A    between atoms: _370  and  _371
REMARK  151  A    between atoms: _370  and  _373
REMARK  152  A    between atoms: _373  and  _374
REMARK  153  A    between atoms: _377  and  _379
REMARK  154  A    between atoms: _379  and  _380
REMARK  155  A    between atoms: _379  and  _382
REMARK  156  A    between atoms: _382  and  _383
REMARK  157  A    between atoms: _386  and  _388
REMARK  158  A    between atoms: _388  and  _389
REMARK  159  A    between atoms: _388  and  _391
REMARK  160  A    between atoms: _394  and  _396
REMARK  161  A    between atoms: _396  and  _397
REMARK  162  A    between atoms: _396  and  _399
REMARK  163  A    between atoms: _399  and  _400
REMARK  164  A    between atoms: _403  and  _405
REMARK  165  A    between atoms: _405  and  _406
REMARK  166  A    between atoms: _405  and  _408
REMARK  167  A    between atoms: _408  and  _409
REMARK  168  A    between atoms: _409  and  _410
REMARK  169  A    between atoms: _410  and  _411
REMARK  170  A    between atoms: _411  and  _412
REMARK  171  A    between atoms: _416  and  _418
REMARK  172  A    between atoms: _418  and  _419
REMARK  173  A    between atoms: _418  and  _421
REMARK  174  A    between atoms: _421  and  _422
REMARK  175  A    between atoms: _422  and  _423
REMARK  176  A    between atoms: _425  and  _427
REMARK  177  A    between atoms: _427  and  _428
REMARK  178  A    between atoms: _427  and  _430
REMARK  179  A    between atoms: _430  and  _431
REMARK  180  A    between atoms: _434  and  _436
REMARK  181  A    between atoms: _436  and  _437
REMARK  182  A    between atoms: _439  and  _441
REMARK  183  A    between atoms: _441  and  _442
REMARK  184  A    between atoms: _444  and  _446
REMARK  185  A    between atoms: _446  and  _447
REMARK  186  A    between atoms: _446  and  _449
REMARK  187  A    between atoms: _449  and  _450
REMARK  188  A    between atoms: _453  and  _455
REMARK  189  A    between atoms: _455  and  _456
REMARK  190  A    between atoms: _458  and  _460
REMARK  191  A    between atoms: _460  and  _461
REMARK  192  A    between atoms: _463  and  _465
REMARK  193  A    between atoms: _465  and  _466
REMARK  194  A    between atoms: _465  and  _468
REMARK  195  A    between atoms: _468  and  _469
REMARK  196  A    between atoms: _475  and  _477
REMARK  197  A    between atoms: _477  and  _478
REMARK  198  A    between atoms: _477  and  _480
REMARK  199  A    between atoms: _480  and  _481
REMARK  200  A    between atoms: _484  and  _486
REMARK  201  A    between atoms: _486  and  _487
REMARK  202  A    between atoms: _486  and  _489
REMARK  203  A    between atoms: _489  and  _490
REMARK  204  A    between atoms: _494  and  _495
REMARK  205  A    between atoms: _500  and  _502
REMARK  206  A    between atoms: _502  and  _503
REMARK  207  A    between atoms: _502  and  _505
REMARK  208  A    between atoms: _505  and  _506
REMARK  209  A    between atoms: _510  and  _511
REMARK  210  A    between atoms: _516  and  _518
REMARK  211  A    between atoms: _518  and  _519
REMARK  212  A    between atoms: _518  and  _521
REMARK  213  A    between atoms: _521  and  _522
REMARK  214  A    between atoms: _528  and  _530
REMARK  215  A    between atoms: _530  and  _531
REMARK  216  A    between atoms: _530  and  _533
REMARK  217  A    between atoms: _533  and  _534
REMARK  218  A    between atoms: _539  and  _541
REMARK  219  A    between atoms: _541  and  _542
REMARK  220  A    between atoms: _541  and  _544
REMARK  221  A    between atoms: _547  and  _549
REMARK  222  A    between atoms: _549  and  _550
REMARK  223  A    between atoms: _549  and  _552
REMARK  224  A    between atoms: _552  and  _553
REMARK  225  A    between atoms: _556  and  _558
REMARK  226  A    between atoms: _558  and  _559
REMARK  227  A    between atoms: _561  and  _563
REMARK  228  A    between atoms: _563  and  _564
REMARK  229  A    between atoms: _563  and  _566
REMARK  230  A    between atoms: _566  and  _567
REMARK  231  A    between atoms: _567  and  _568
REMARK  232  A    between atoms: _568  and  _569
REMARK  233  A    between atoms: _578  and  _580
REMARK  234  A    between atoms: _580  and  _581
REMARK  235  A    between atoms: _580  and  _583
REMARK  236  A    between atoms: _583  and  _584
REMARK                            x       y       z     vdW  Elec       q    Type
REMARK                         _______ _______ _______ _____ _____    ______ ____
ROOT
ATOM      1  C   GLY A   5      -9.303  10.748  28.833  0.00  0.00    +0.243 C 
ATOM      2  O   GLY A   5      -9.712   9.599  28.768  0.00  0.00    -0.273 OA
ATOM      3  N   ILE A   6      -9.096  11.430  27.736  0.00  0.00    -0.297 N 
ATOM      4  H   ILE A   6      -8.918  12.455  27.727  0.00  0.00    +0.150 HD
ENDROOT
BRANCH   3   5
ATOM      5  CA  ILE A   6      -9.139  10.619  26.530  0.00  0.00    +0.149 C 
BRANCH   5   6
ATOM      6  C   ILE A   6      -7.779   9.992  26.505  0.00  0.00    +0.241 C 
ATOM      7  O   ILE A   6      -6.791  10.645  26.806  0.00  0.00    -0.273 OA
ATOM      8  N   GLY A   7      -7.723   8.735  26.157  0.00  0.00    -0.295 N 
ATOM      9  H   GLY A   7      -8.553   8.182  25.862  0.00  0.00    +0.150 HD
BRANCH   8  10
ATOM     10  CA  GLY A   7      -6.374   8.191  26.226  0.00  0.00    +0.176 C 
BRANCH  10  11
ATOM     11  C   GLY A   7      -6.143   7.308  27.445  0.00  0.00    +0.243 C 
ATOM     12  N   GLY A   8      -6.868   7.532  28.540  0.00  0.00    -0.295 N 
ATOM     13  H   GLY A   8      -7.578   8.290  28.602  0.00  0.00    +0.150 HD
ATOM     14  O   GLY A   7      -5.332   6.403  27.385  0.00  0.00    -0.273 OA
BRANCH  12  15
ATOM     15  CA  GLY A   8      -6.582   6.627  29.639  0.00  0.00    +0.176 C 
BRANCH  15  16
ATOM     16  C   GLY A   8      -6.730   7.308  30.961  0.00  0.00    +0.243 C 
ATOM     17  N   PHE A   9      -6.087   6.720  31.969  0.00  0.00    -0.297 N 
ATOM     18  H   PHE A   9      -5.490   5.891  31.774  0.00  0.00    +0.150 HD
ATOM     19  O   GLY A   8      -7.440   8.300  31.053  0.00  0.00    -0.273 OA
BRANCH  17  20
ATOM     20  CA  PHE A   9      -6.199   7.209  33.342  0.00  0.00    +0.153 C 
BRANCH  20  21
ATOM     21  C   PHE A   9      -4.833   7.671  33.702  0.00  0.00    +0.241 C 
ATOM     22  N   ILE A  10      -4.694   8.541  34.682  0.00  0.00    -0.298 N 
ATOM     23  H   ILE A  10      -5.533   8.969  35.123  0.00  0.00    +0.150 HD
ATOM     24  O   PHE A   9      -3.901   7.223  33.068  0.00  0.00    -0.273 OA
BRANCH  22  25
ATOM     25  CA  ILE A  10      -3.355   8.901  35.146  0.00  0.00    +0.137 C 
BRANCH  25  26
ATOM     26  C   ILE A  10      -3.408   9.039  36.629  0.00  0.00    +0.227 C 
ATOM     27  O   ILE A  10      -4.434   9.431  37.166  0.00  0.00    -0.286 OA
ENDBRANCH  25  26
BRANCH  25  28
ATOM     28  CB  ILE A  10      -2.830  10.245  34.598  0.00  0.00    +0.026 C 
ATOM     29  CG2 ILE A  10      -2.455  10.128  33.126  0.00  0.00    +0.002 C 
BRANCH  28  30
ATOM     30  CG1 ILE A  10      -3.655  11.525  34.845  0.00  0.00    +0.002 C 
ATOM     31  CD1 ILE A  10      -2.872  12.814  34.533  0.00  0.00    +0.000 C 
ENDBRANCH  28  30
ENDBRANCH  25  28
ENDBRANCH  22  25
ENDBRANCH  20  21
BRANCH  20  32
ATOM     32  CB  PHE A   9      -6.598   6.072  34.279  0.00  0.00    +0.055 C 
BRANCH  32  33
ATOM     33  CG  PHE A   9      -8.108   6.020  34.509  0.00  0.00    -0.020 A 
ATOM     34  CD2 PHE A   9      -8.635   6.314  35.794  0.00  0.00    -0.004 A 
ATOM     35  CE2 PHE A   9     -10.034   6.303  36.025  0.00  0.00    -0.000 A 
ATOM     36  CZ  PHE A   9     -10.921   5.993  34.976  0.00  0.00    -0.000 A 
ATOM     37  CE1 PHE A   9     -10.410   5.689  33.698  0.00  0.00    -0.000 A 
ATOM     38  CD1 PHE A   9      -9.009   5.700  33.460  0.00  0.00    -0.004 A 
ENDBRANCH  32  33
ENDBRANCH  20  32
ENDBRANCH  17  20
ENDBRANCH  15  16
ENDBRANCH  12  15
ENDBRANCH  10  11
ENDBRANCH   8  10
ENDBRANCH   5   6
BRANCH   5  39
ATOM     39  CB  ILE A   6      -9.361  11.579  25.364  0.00  0.00    +0.027 C 
ATOM     40  CG2 ILE A   6      -8.552  11.263  24.110  0.00  0.00    +0.002 C 
BRANCH  39  41
ATOM     41  CG1 ILE A   6     -10.843  11.552  25.022  0.00  0.00    +0.002 C 
ATOM     42  CD1 ILE A   6     -11.288  12.568  23.965  0.00  0.00    +0.000 C 
ENDBRANCH  39  41
ENDBRANCH   5  39
ENDBRANCH   3   5
BRANCH   1  43
ATOM     43  CA  GLY A   5      -8.974  11.484  30.120  0.00  0.00    +0.176 C 
BRANCH  43  46
ATOM     44  C   GLY A   4      -9.446  10.854  32.437  0.00  0.00    +0.243 C 
ATOM     45  O   GLY A   4      -9.819  11.972  32.769  0.00  0.00    -0.273 OA
ATOM     46  N   GLY A   5      -9.004  10.544  31.236  0.00  0.00    -0.295 N 
ATOM     47  H   GLY A   5      -8.658   9.577  31.074  0.00  0.00    +0.150 HD
BRANCH  44  48
ATOM     48  CA  GLY A   4      -9.450   9.680  33.403  0.00  0.00    +0.176 C 
BRANCH  48  51
ATOM     49  C   ILE A   3      -8.388   9.977  35.510  0.00  0.00    +0.241 C 
ATOM     50  O   ILE A   3      -7.398   9.371  35.132  0.00  0.00    -0.273 OA
ATOM     51  N   GLY A   4      -9.475  10.128  34.790  0.00  0.00    -0.295 N 
ATOM     52  H   GLY A   4     -10.331  10.556  35.198  0.00  0.00    +0.150 HD
BRANCH  49  53
ATOM     53  CA  ILE A   3      -8.416  10.596  36.860  0.00  0.00    +0.149 C 
BRANCH  53  56
ATOM     54  C   MET A   2      -7.622   9.470  38.782  0.00  0.00    +0.241 C 
ATOM     55  O   MET A   2      -8.707   9.580  39.328  0.00  0.00    -0.273 OA
ATOM     56  N   ILE A   3      -7.334   9.989  37.608  0.00  0.00    -0.297 N 
ATOM     57  H   ILE A   3      -6.365   9.964  37.231  0.00  0.00    +0.150 HD
BRANCH  54  58
ATOM     58  CA  MET A   2      -6.513   8.728  39.461  0.00  0.00    +0.149 C 
BRANCH  58  61
ATOM     59  C   LYS A   1      -5.627   9.481  41.542  0.00  0.00    +0.238 C 
ATOM     60  O   LYS A   1      -4.561   9.732  41.003  0.00  0.00    -0.274 OA
ATOM     61  N   MET A   2      -6.641   8.939  40.898  0.00  0.00    -0.297 N 
ATOM     62  H   MET A   2      -7.510   8.669  41.402  0.00  0.00    +0.150 HD
BRANCH  59  63
ATOM     63  CA  LYS A   1      -5.805   9.711  43.017  0.00  0.00    +0.145 C 
BRANCH  63  64
ATOM     64  N   LYS A   1      -4.534  10.114  43.606  0.00  0.00    -0.238 NA
ATOM     65  H   LYS A   1      -3.850  10.708  43.096  0.00  0.00    +0.142 HD
ENDBRANCH  63  64
BRANCH  63  66
ATOM     66  CB  LYS A   1      -6.998  10.624  43.432  0.00  0.00    +0.026 C 
BRANCH  66  67
ATOM     67  CG  LYS A   1      -7.419  11.859  42.624  0.00  0.00    -0.000 C 
BRANCH  67  68
ATOM     68  CD  LYS A   1      -8.903  12.177  42.908  0.00  0.00    -0.024 C 
BRANCH  68  69
ATOM     69  CE  LYS A   1      -9.565  13.074  41.847  0.00  0.00    -0.086 C 
BRANCH  69  70
ATOM     70  NZ  LYS A   1     -11.040  13.090  41.989  0.00  0.00    +0.380 N 
ATOM     71  HZ1 LYS A   1     -11.293  13.453  42.930  0.00  0.00    -0.089 HD
ATOM     72  HZ2 LYS A   1     -11.408  12.124  41.879  0.00  0.00    -0.089 HD
ATOM     73  HZ3 LYS A   1     -11.451  13.705  41.257  0.00  0.00    -0.089 HD
ENDBRANCH  69  70
ENDBRANCH  68  69
ENDBRANCH  67  68
ENDBRANCH  66  67
ENDBRANCH  63  66
ENDBRANCH  59  63
ENDBRANCH  58  61
BRANCH  58  74
ATOM     74  CB  MET A   2      -6.647   7.250  39.163  0.00  0.00    +0.041 C 
BRANCH  74  75
ATOM     75  CG  MET A   2      -5.375   6.550  39.583  0.00  0.00    +0.060 C 
BRANCH  75  76
ATOM     76  SD  MET A   2      -5.656   4.796  39.697  0.00  0.00    -0.139 S 
ATOM     77  CE  MET A   2      -6.011   4.691  41.465  0.00  0.00    +0.069 C 
ENDBRANCH  75  76
ENDBRANCH  74  75
ENDBRANCH  58  74
ENDBRANCH  54  58
ENDBRANCH  53  56
BRANCH  53  78
ATOM     78  CB  ILE A   3      -8.219  12.120  36.744  0.00  0.00    +0.027 C 
ATOM     79  CG2 ILE A   3      -8.517  12.890  38.042  0.00  0.00    +0.002 C 
BRANCH  78  80
ATOM     80  CG1 ILE A   3      -6.851  12.541  36.268  0.00  0.00    +0.002 C 
ATOM     81  CD1 ILE A   3      -7.024  13.888  35.583  0.00  0.00    +0.000 C 
ENDBRANCH  78  80
ENDBRANCH  53  78
ENDBRANCH  49  53
ENDBRANCH  48  51
ENDBRANCH  44  48
ENDBRANCH  43  46
ENDBRANCH   1  43
TORSDOF 36
REMARK  Name = ../refined-set-2016/1bwa/1bwa_pocket.pdb
REMARK  236 active torsions:
REMARK  status: ('A' for Active; 'I' for Inactive)
REMARK    1  A    between atoms: _1  and  _3
REMARK    2  A    between atoms: _3  and  _4
REMARK    3  A    between atoms: _3  and  _6
REMARK    4  A    between atoms: _6  and  _7
REMARK    5  A    between atoms: _7  and  _8
REMARK    6  A    between atoms: _8  and  _9
REMARK    7  A    between atoms: _18  and  _20
REMARK    8  A    between atoms: _20  and  _21
REMARK    9  A    between atoms: _20  and  _23
REMARK   10  A    between atoms: _23  and  _24
REMARK   11  A    between atoms: _27  and  _29
REMARK   12  A    between atoms: _29  and  _30
REMARK   13  A    between atoms: _29  and  _32
REMARK   14  A    between atoms: _32  and  _33
REMARK   15  A    between atoms: _36  and  _38
REMARK   16  A    between atoms: _38  and  _39
REMARK   17  A    between atoms: _38  and  _41
REMARK   18  A    between atoms: _41  and  _42
REMARK   19  A    between atoms: _45  and  _47
REMARK   20  A    between atoms: _47  and  _48
REMARK   21  A    between atoms: _47  and  _50
REMARK   22  A    between atoms: _50  and  _51
REMARK   23  A    between atoms: _54  and  _56
REMARK   24  A    between atoms: _56  and  _57
REMARK   25  A    between atoms: _59  and  _61
REMARK   26  A    between atoms: _61  and  _62
REMARK   27  A    between atoms: _65  and  _67
REMARK   28  A    between atoms: _67  and  _68
REMARK   29  A    between atoms: _67  and  _70
REMARK   30  A    between atoms: _70  and  _71
REMARK   31  A    between atoms: _74  and  _76
REMARK   32  A    between atoms: _76  and  _77
REMARK   33  A    between atoms: _76  and  _79
REMARK   34  A    between atoms: _79  and  _80
REMARK   35  A    between atoms: _83  and  _85
REMARK   36  A    between atoms: _85  and  _86
REMARK   37  A    between atoms: _85  and  _88
REMARK   38  A    between atoms: _88  and  _89
REMARK   39  A    between atoms: _92  and  _94
REMARK   40  A    between atoms: _94  and  _95
REMARK   41  A    between atoms: _94  and  _97
REMARK   42  A    between atoms: _100  and  _102
REMARK   43  A    between atoms: _102  and  _103
REMARK   44  A    between atoms: _102  and  _105
REMARK   45  A    between atoms: _105  and  _106
REMARK   46  A    between atoms: _109  and  _111
REMARK   47  A    between atoms: _111  and  _112
REMARK   48  A    between atoms: _111  and  _114
REMARK   49  A    between atoms: _114  and  _115
REMARK   50  A    between atoms: _115  and  _116
REMARK   51  A    between atoms: _116  and  _117
REMARK   52  A    between atoms: _117  and  _118
REMARK   53  A    between atoms: _122  and  _124
REMARK   54  A    between atoms: _124  and  _125
REMARK   55  A    between atoms: _124  and  _127
REMARK   56  A    between atoms: _127  and  _128
REMARK   57  A    between atoms: _128  and  _129
REMARK   58  A    between atoms: _131  and  _133
REMARK   59  A    between atoms: _133  and  _134
REMARK   60  A    between atoms: _133  and  _136
REMARK   61  A    between atoms: _136  and  _137
REMARK   62  A    between atoms: _140  and  _142
REMARK   63  A    between atoms: _142  and  _143
REMARK   64  A    between atoms: _145  and  _147
REMARK   65  A    between atoms: _147  and  _148
REMARK   66  A    between atoms: _150  and  _152
REMARK   67  A    between atoms: _152  and  _153
REMARK   68  A    between atoms: _152  and  _155
REMARK   69  A    between atoms: _155  and  _156
REMARK   70  A    between atoms: _159  and  _161
REMARK   71  A    between atoms: _161  and  _162
REMARK   72  A    between atoms: _164  and  _166
REMARK   73  A    between atoms: _166  and  _167
REMARK   74  A    between atoms: _169  and  _171
REMARK   75  A    between atoms: _171  and  _172
REMARK   76  A    between atoms: _171  and  _174
REMARK   77  A    between atoms: _174  and  _175
REMARK   78  A    between atoms: _181  and  _183
REMARK   79  A    between atoms: _183  and  _184
REMARK   80  A    between atoms: _183  and  _186
REMARK   81  A    between atoms: _186  and  _187
REMARK   82  A    between atoms: _190  and  _192
REMARK   83  A    between atoms: _192  and  _193
REMARK   84  A    between atoms: _192  and  _195
REMARK   85  A    between atoms: _195  and  _196
REMARK   86  A    between atoms: _200  and  _201
REMARK   87  A    between atoms: _206  and  _208
REMARK   88  A    between atoms: _208  and  _209
REMARK   89  A    between atoms: _208  and  _211
REMARK   90  A    between atoms: _211  and  _212
REMARK   91  A    between atoms: _216  and  _217
REMARK   92  A    between atoms: _222  and  _224
REMARK   93  A    between atoms: _224  and  _225
REMARK   94  A    between atoms: _224  and  _227
REMARK   95  A    between atoms: _227  and  _228
REMARK   96  A    between atoms: _234  and  _236
REMARK   97  A    between atoms: _236  and  _237
REMARK   98  A    between atoms: _236  and  _239
REMARK   99  A    between atoms: _239  and  _240
REMARK  100  A    between atoms: _245  and  _247
REMARK  101  A    between atoms: _247  and  _248
REMARK  102  A    between atoms: _247  and  _250
REMARK  103  A    between atoms: _253  and  _255
REMARK  104  A    between atoms: _255  and  _256
REMARK  105  A    between atoms: _255  and  _258
REMARK  106  A    between atoms: _258  and  _259
REMARK  107  A    between atoms: _262  and  _264
REMARK  108  A    between atoms: _264  and  _265
REMARK  109  A    between atoms: _267  and  _269
REMARK  110  A    between atoms: _269  and  _270
REMARK  111  A    between atoms: _269  and  _272
REMARK  112  A    between atoms: _272  and  _273
REMARK  113  A    between atoms: _273  and  _274
REMARK  114  A    between atoms: _274  and  _275
REMARK  115  A    between atoms: _284  and  _286
REMARK  116  A    between atoms: _286  and  _287
REMARK  117  A    between atoms: _286  and  _289
REMARK  118  A    between atoms: _289  and  _290
REMARK  119  A    between atoms: _295  and  _297
REMARK  120  A    between atoms: _297  and  _298
REMARK  121  A    between atoms: _297  and  _300
REMARK  122  A    between atoms: _300  and  _301
REMARK  123  A    between atoms: _301  and  _302
REMARK  124  A    between atoms: _302  and  _303
REMARK  125  A    between atoms: _312  and  _314
REMARK  126  A    between atoms: _314  and  _315
REMARK  127  A    between atoms: _314  and  _317
REMARK  128  A    between atoms: _317  and  _318
REMARK  129  A    between atoms: _321  and  _323
REMARK  130  A    between atoms: _323  and  _324
REMARK  131  A    between atoms: _323  and  _326
REMARK  132  A    between atoms: _326  and  _327
REMARK  133  A    between atoms: _330  and  _332
REMARK  134  A    between atoms: _332  and  _333
REMARK  135  A    between atoms: _332  and  _335
REMARK  136  A    between atoms: _335  and  _336
REMARK  137  A    between atoms: _339  and  _341
REMARK  138  A    between atoms: _341  and  _342
REMARK  139  A    between atoms: _341  and  _344
REMARK  140  A    between atoms: _344  and  _345
REMARK  141  A    between atoms: _348  and  _350
REMARK  142  A    between atoms: _350  and  _351
REMARK  143  A    between atoms: _353  and  _355
REMARK  144  A    between atoms: _355  and  _356
REMARK  145  A    between atoms: _359  and  _361
REMARK  146  A    between atoms: _361  and  _362
REMARK  147  A    between atoms: _361  and  _364
REMARK  148  A    between atoms: _364  and  _365
REMARK  149  A    between atoms: _368  and  _370
REMARK  150  A    between atoms: _370  and  _371
REMARK  151  A    between atoms: _370  and  _373
REMARK  152  A    between atoms: _373  and  _374
REMARK  153  A    between atoms: _377  and  _379
REMARK  154  A    between atoms: _379  and  _380
REMARK  155  A    between atoms: _379  and  _382
REMARK  156  A    between atoms: _382  and  _383
REMARK  157  A    between atoms: _386  and  _388
REMARK  158  A    between atoms: _388  and  _389
REMARK  159  A    between atoms: _388  and  _391
REMARK  160  A    between atoms: _394  and  _396
REMARK  161  A    between atoms: _396  and  _397
REMARK  162  A    between atoms: _396  and  _399
REMARK  163  A    between atoms: _399  and  _400
REMARK  164  A    between atoms: _403  and  _405
REMARK  165  A    between atoms: _405  and  _406
REMARK  166  A    between atoms: _405  and  _408
REMARK  167  A    between atoms: _408  and  _409
REMARK  168  A    between atoms: _409  and  _410
REMARK  169  A    between atoms: _410  and  _411
REMARK  170  A    between atoms: _411  and  _412
REMARK  171  A    between atoms: _416  and  _418
REMARK  172  A    between atoms: _418  and  _419
REMARK  173  A    between atoms: _418  and  _421
REMARK  174  A    between atoms: _421  and  _422
REMARK  175  A    between atoms: _422  and  _423
REMARK  176  A    between atoms: _425  and  _427
REMARK  177  A    between atoms: _427  and  _428
REMARK  178  A    between atoms: _427  and  _430
REMARK  179  A    between atoms: _430  and  _431
REMARK  180  A    between atoms: _434  and  _436
REMARK  181  A    between atoms: _436  and  _437
REMARK  182  A    between atoms: _439  and  _441
REMARK  183  A    between atoms: _441  and  _442
REMARK  184  A    between atoms: _444  and  _446
REMARK  185  A    between atoms: _446  and  _447
REMARK  186  A    between atoms: _446  and  _449
REMARK  187  A    between atoms: _449  and  _450
REMARK  188  A    between atoms: _453  and  _455
REMARK  189  A    between atoms: _455  and  _456
REMARK  190  A    between atoms: _458  and  _460
REMARK  191  A    between atoms: _460  and  _461
REMARK  192  A    between atoms: _463  and  _465
REMARK  193  A    between atoms: _465  and  _466
REMARK  194  A    between atoms: _465  and  _468
REMARK  195  A    between atoms: _468  and  _469
REMARK  196  A    between atoms: _475  and  _477
REMARK  197  A    between atoms: _477  and  _478
REMARK  198  A    between atoms: _477  and  _480
REMARK  199  A    between atoms: _480  and  _481
REMARK  200  A    between atoms: _484  and  _486
REMARK  201  A    between atoms: _486  and  _487
REMARK  202  A    between atoms: _486  and  _489
REMARK  203  A    between atoms: _489  and  _490
REMARK  204  A    between atoms: _494  and  _495
REMARK  205  A    between atoms: _500  and  _502
REMARK  206  A    between atoms: _502  and  _503
REMARK  207  A    between atoms: _502  and  _505
REMARK  208  A    between atoms: _505  and  _506
REMARK  209  A    between atoms: _510  and  _511
REMARK  210  A    between atoms: _516  and  _518
REMARK  211  A    between atoms: _518  and  _519
REMARK  212  A    between atoms: _518  and  _521
REMARK  213  A    between atoms: _521  and  _522
REMARK  214  A    between atoms: _528  and  _530
REMARK  215  A    between atoms: _530  and  _531
REMARK  216  A    between atoms: _530  and  _533
REMARK  217  A    between atoms: _533  and  _534
REMARK  218  A    between atoms: _539  and  _541
REMARK  219  A    between atoms: _541  and  _542
REMARK  220  A    between atoms: _541  and  _544
REMARK  221  A    between atoms: _547  and  _549
REMARK  222  A    between atoms: _549  and  _550
REMARK  223  A    between atoms: _549  and  _552
REMARK  224  A    between atoms: _552  and  _553
REMARK  225  A    between atoms: _556  and  _558
REMARK  226  A    between atoms: _558  and  _559
REMARK  227  A    between atoms: _561  and  _563
REMARK  228  A    between atoms: _563  and  _564
REMARK  229  A    between atoms: _563  and  _566
REMARK  230  A    between atoms: _566  and  _567
REMARK  231  A    between atoms: _567  and  _568
REMARK  232  A    between atoms: _568  and  _569
REMARK  233  A    between atoms: _578  and  _580
REMARK  234  A    between atoms: _580  and  _581
REMARK  235  A    between atoms: _580  and  _583
REMARK  236  A    between atoms: _583  and  _584
REMARK                            x       y       z     vdW  Elec       q    Type
REMARK                         _______ _______ _______ _____ _____    ______ ____
ROOT
ATOM      1  CA  LEU A   1      -4.239  17.659  41.042  0.00  0.00    +0.133 C 
ENDROOT
BRANCH   1   2
ATOM      2  N   LEU A   1      -4.822  18.978  41.251  0.00  0.00    -0.239 NA
ATOM      3  H   LEU A   1      -5.202  19.484  40.426  0.00  0.00    +0.142 HD
ENDBRANCH   1   2
BRANCH   1   4
ATOM      4  C   LEU A   1      -3.006  17.953  40.256  0.00  0.00    +0.224 C 
ATOM      5  O   LEU A   1      -3.049  18.787  39.365  0.00  0.00    -0.287 OA
ENDBRANCH   1   4
BRANCH   1   6
ATOM      6  CB  LEU A   1      -5.167  16.836  40.133  0.00  0.00    +0.025 C 
BRANCH   6   7
ATOM      7  CG  LEU A   1      -6.273  16.030  40.787  0.00  0.00    +0.002 C 
ATOM      8  CD2 LEU A   1      -6.798  16.580  42.099  0.00  0.00    +0.000 C 
ATOM      9  CD1 LEU A   1      -7.382  15.862  39.771  0.00  0.00    +0.000 C 
ENDBRANCH   6   7
ENDBRANCH   1   6
TORSDOF 4
REMARK  Name = ../refined-set-2016/1bwa/1bwa_pocket.pdb
REMARK  236 active torsions:
REMARK  status: ('A' for Active; 'I' for Inactive)
REMARK    1  A    between atoms: _1  and  _3
REMARK    2  A    between atoms: _3  and  _4
REMARK    3  A    between atoms: _3  and  _6
REMARK    4  A    between atoms: _6  and  _7
REMARK    5  A    between atoms: _7  and  _8
REMARK    6  A    between atoms: _8  and  _9
REMARK    7  A    between atoms: _18  and  _20
REMARK    8  A    between atoms: _20  and  _21
REMARK    9  A    between atoms: _20  and  _23
REMARK   10  A    between atoms: _23  and  _24
REMARK   11  A    between atoms: _27  and  _29
REMARK   12  A    between atoms: _29  and  _30
REMARK   13  A    between atoms: _29  and  _32
REMARK   14  A    between atoms: _32  and  _33
REMARK   15  A    between atoms: _36  and  _38
REMARK   16  A    between atoms: _38  and  _39
REMARK   17  A    between atoms: _38  and  _41
REMARK   18  A    between atoms: _41  and  _42
REMARK   19  A    between atoms: _45  and  _47
REMARK   20  A    between atoms: _47  and  _48
REMARK   21  A    between atoms: _47  and  _50
REMARK   22  A    between atoms: _50  and  _51
REMARK   23  A    between atoms: _54  and  _56
REMARK   24  A    between atoms: _56  and  _57
REMARK   25  A    between atoms: _59  and  _61
REMARK   26  A    between atoms: _61  and  _62
REMARK   27  A    between atoms: _65  and  _67
REMARK   28  A    between atoms: _67  and  _68
REMARK   29  A    between atoms: _67  and  _70
REMARK   30  A    between atoms: _70  and  _71
REMARK   31  A    between atoms: _74  and  _76
REMARK   32  A    between atoms: _76  and  _77
REMARK   33  A    between atoms: _76  and  _79
REMARK   34  A    between atoms: _79  and  _80
REMARK   35  A    between atoms: _83  and  _85
REMARK   36  A    between atoms: _85  and  _86
REMARK   37  A    between atoms: _85  and  _88
REMARK   38  A    between atoms: _88  and  _89
REMARK   39  A    between atoms: _92  and  _94
REMARK   40  A    between atoms: _94  and  _95
REMARK   41  A    between atoms: _94  and  _97
REMARK   42  A    between atoms: _100  and  _102
REMARK   43  A    between atoms: _102  and  _103
REMARK   44  A    between atoms: _102  and  _105
REMARK   45  A    between atoms: _105  and  _106
REMARK   46  A    between atoms: _109  and  _111
REMARK   47  A    between atoms: _111  and  _112
REMARK   48  A    between atoms: _111  and  _114
REMARK   49  A    between atoms: _114  and  _115
REMARK   50  A    between atoms: _115  and  _116
REMARK   51  A    between atoms: _116  and  _117
REMARK   52  A    between atoms: _117  and  _118
REMARK   53  A    between atoms: _122  and  _124
REMARK   54  A    between atoms: _124  and  _125
REMARK   55  A    between atoms: _124  and  _127
REMARK   56  A    between atoms: _127  and  _128
REMARK   57  A    between atoms: _128  and  _129
REMARK   58  A    between atoms: _131  and  _133
REMARK   59  A    between atoms: _133  and  _134
REMARK   60  A    between atoms: _133  and  _136
REMARK   61  A    between atoms: _136  and  _137
REMARK   62  A    between atoms: _140  and  _142
REMARK   63  A    between atoms: _142  and  _143
REMARK   64  A    between atoms: _145  and  _147
REMARK   65  A    between atoms: _147  and  _148
REMARK   66  A    between atoms: _150  and  _152
REMARK   67  A    between atoms: _152  and  _153
REMARK   68  A    between atoms: _152  and  _155
REMARK   69  A    between atoms: _155  and  _156
REMARK   70  A    between atoms: _159  and  _161
REMARK   71  A    between atoms: _161  and  _162
REMARK   72  A    between atoms: _164  and  _166
REMARK   73  A    between atoms: _166  and  _167
REMARK   74  A    between atoms: _169  and  _171
REMARK   75  A    between atoms: _171  and  _172
REMARK   76  A    between atoms: _171  and  _174
REMARK   77  A    between atoms: _174  and  _175
REMARK   78  A    between atoms: _181  and  _183
REMARK   79  A    between atoms: _183  and  _184
REMARK   80  A    between atoms: _183  and  _186
REMARK   81  A    between atoms: _186  and  _187
REMARK   82  A    between atoms: _190  and  _192
REMARK   83  A    between atoms: _192  and  _193
REMARK   84  A    between atoms: _192  and  _195
REMARK   85  A    between atoms: _195  and  _196
REMARK   86  A    between atoms: _200  and  _201
REMARK   87  A    between atoms: _206  and  _208
REMARK   88  A    between atoms: _208  and  _209
REMARK   89  A    between atoms: _208  and  _211
REMARK   90  A    between atoms: _211  and  _212
REMARK   91  A    between atoms: _216  and  _217
REMARK   92  A    between atoms: _222  and  _224
REMARK   93  A    between atoms: _224  and  _225
REMARK   94  A    between atoms: _224  and  _227
REMARK   95  A    between atoms: _227  and  _228
REMARK   96  A    between atoms: _234  and  _236
REMARK   97  A    between atoms: _236  and  _237
REMARK   98  A    between atoms: _236  and  _239
REMARK   99  A    between atoms: _239  and  _240
REMARK  100  A    between atoms: _245  and  _247
REMARK  101  A    between atoms: _247  and  _248
REMARK  102  A    between atoms: _247  and  _250
REMARK  103  A    between atoms: _253  and  _255
REMARK  104  A    between atoms: _255  and  _256
REMARK  105  A    between atoms: _255  and  _258
REMARK  106  A    between atoms: _258  and  _259
REMARK  107  A    between atoms: _262  and  _264
REMARK  108  A    between atoms: _264  and  _265
REMARK  109  A    between atoms: _267  and  _269
REMARK  110  A    between atoms: _269  and  _270
REMARK  111  A    between atoms: _269  and  _272
REMARK  112  A    between atoms: _272  and  _273
REMARK  113  A    between atoms: _273  and  _274
REMARK  114  A    between atoms: _274  and  _275
REMARK  115  A    between atoms: _284  and  _286
REMARK  116  A    between atoms: _286  and  _287
REMARK  117  A    between atoms: _286  and  _289
REMARK  118  A    between atoms: _289  and  _290
REMARK  119  A    between atoms: _295  and  _297
REMARK  120  A    between atoms: _297  and  _298
REMARK  121  A    between atoms: _297  and  _300
REMARK  122  A    between atoms: _300  and  _301
REMARK  123  A    between atoms: _301  and  _302
REMARK  124  A    between atoms: _302  and  _303
REMARK  125  A    between atoms: _312  and  _314
REMARK  126  A    between atoms: _314  and  _315
REMARK  127  A    between atoms: _314  and  _317
REMARK  128  A    between atoms: _317  and  _318
REMARK  129  A    between atoms: _321  and  _323
REMARK  130  A    between atoms: _323  and  _324
REMARK  131  A    between atoms: _323  and  _326
REMARK  132  A    between atoms: _326  and  _327
REMARK  133  A    between atoms: _330  and  _332
REMARK  134  A    between atoms: _332  and  _333
REMARK  135  A    between atoms: _332  and  _335
REMARK  136  A    between atoms: _335  and  _336
REMARK  137  A    between atoms: _339  and  _341
REMARK  138  A    between atoms: _341  and  _342
REMARK  139  A    between atoms: _341  and  _344
REMARK  140  A    between atoms: _344  and  _345
REMARK  141  A    between atoms: _348  and  _350
REMARK  142  A    between atoms: _350  and  _351
REMARK  143  A    between atoms: _353  and  _355
REMARK  144  A    between atoms: _355  and  _356
REMARK  145  A    between atoms: _359  and  _361
REMARK  146  A    between atoms: _361  and  _362
REMARK  147  A    between atoms: _361  and  _364
REMARK  148  A    between atoms: _364  and  _365
REMARK  149  A    between atoms: _368  and  _370
REMARK  150  A    between atoms: _370  and  _371
REMARK  151  A    between atoms: _370  and  _373
REMARK  152  A    between atoms: _373  and  _374
REMARK  153  A    between atoms: _377  and  _379
REMARK  154  A    between atoms: _379  and  _380
REMARK  155  A    between atoms: _379  and  _382
REMARK  156  A    between atoms: _382  and  _383
REMARK  157  A    between atoms: _386  and  _388
REMARK  158  A    between atoms: _388  and  _389
REMARK  159  A    between atoms: _388  and  _391
REMARK  160  A    between atoms: _394  and  _396
REMARK  161  A    between atoms: _396  and  _397
REMARK  162  A    between atoms: _396  and  _399
REMARK  163  A    between atoms: _399  and  _400
REMARK  164  A    between atoms: _403  and  _405
REMARK  165  A    between atoms: _405  and  _406
REMARK  166  A    between atoms: _405  and  _408
REMARK  167  A    between atoms: _408  and  _409
REMARK  168  A    between atoms: _409  and  _410
REMARK  169  A    between atoms: _410  and  _411
REMARK  170  A    between atoms: _411  and  _412
REMARK  171  A    between atoms: _416  and  _418
REMARK  172  A    between atoms: _418  and  _419
REMARK  173  A    between atoms: _418  and  _421
REMARK  174  A    between atoms: _421  and  _422
REMARK  175  A    between atoms: _422  and  _423
REMARK  176  A    between atoms: _425  and  _427
REMARK  177  A    between atoms: _427  and  _428
REMARK  178  A    between atoms: _427  and  _430
REMARK  179  A    between atoms: _430  and  _431
REMARK  180  A    between atoms: _434  and  _436
REMARK  181  A    between atoms: _436  and  _437
REMARK  182  A    between atoms: _439  and  _441
REMARK  183  A    between atoms: _441  and  _442
REMARK  184  A    between atoms: _444  and  _446
REMARK  185  A    between atoms: _446  and  _447
REMARK  186  A    between atoms: _446  and  _449
REMARK  187  A    between atoms: _449  and  _450
REMARK  188  A    between atoms: _453  and  _455
REMARK  189  A    between atoms: _455  and  _456
REMARK  190  A    between atoms: _458  and  _460
REMARK  191  A    between atoms: _460  and  _461
REMARK  192  A    between atoms: _463  and  _465
REMARK  193  A    between atoms: _465  and  _466
REMARK  194  A    between atoms: _465  and  _468
REMARK  195  A    between atoms: _468  and  _469
REMARK  196  A    between atoms: _475  and  _477
REMARK  197  A    between atoms: _477  and  _478
REMARK  198  A    between atoms: _477  and  _480
REMARK  199  A    between atoms: _480  and  _481
REMARK  200  A    between atoms: _484  and  _486
REMARK  201  A    between atoms: _486  and  _487
REMARK  202  A    between atoms: _486  and  _489
REMARK  203  A    between atoms: _489  and  _490
REMARK  204  A    between atoms: _494  and  _495
REMARK  205  A    between atoms: _500  and  _502
REMARK  206  A    between atoms: _502  and  _503
REMARK  207  A    between atoms: _502  and  _505
REMARK  208  A    between atoms: _505  and  _506
REMARK  209  A    between atoms: _510  and  _511
REMARK  210  A    between atoms: _516  and  _518
REMARK  211  A    between atoms: _518  and  _519
REMARK  212  A    between atoms: _518  and  _521
REMARK  213  A    between atoms: _521  and  _522
REMARK  214  A    between atoms: _528  and  _530
REMARK  215  A    between atoms: _530  and  _531
REMARK  216  A    between atoms: _530  and  _533
REMARK  217  A    between atoms: _533  and  _534
REMARK  218  A    between atoms: _539  and  _541
REMARK  219  A    between atoms: _541  and  _542
REMARK  220  A    between atoms: _541  and  _544
REMARK  221  A    between atoms: _547  and  _549
REMARK  222  A    between atoms: _549  and  _550
REMARK  223  A    between atoms: _549  and  _552
REMARK  224  A    between atoms: _552  and  _553
REMARK  225  A    between atoms: _556  and  _558
REMARK  226  A    between atoms: _558  and  _559
REMARK  227  A    between atoms: _561  and  _563
REMARK  228  A    between atoms: _563  and  _564
REMARK  229  A    between atoms: _563  and  _566
REMARK  230  A    between atoms: _566  and  _567
REMARK  231  A    between atoms: _567  and  _568
REMARK  232  A    between atoms: _568  and  _569
REMARK  233  A    between atoms: _578  and  _580
REMARK  234  A    between atoms: _580  and  _581
REMARK  235  A    between atoms: _580  and  _583
REMARK  236  A    between atoms: _583  and  _584
REMARK                            x       y       z     vdW  Elec       q    Type
REMARK                         _______ _______ _______ _____ _____    ______ ____
ROOT
ATOM      1  C   ASN A   5      -3.437  23.065  32.312  0.00  0.00    +0.241 C 
ATOM      2  N   VAL A   6      -4.378  22.428  32.991  0.00  0.00    -0.297 N 
ATOM      3  H   VAL A   6      -4.136  21.750  33.741  0.00  0.00    +0.150 HD
ATOM      4  O   ASN A   5      -3.691  23.848  31.399  0.00  0.00    -0.273 OA
ENDROOT
BRANCH   1   5
ATOM      5  CA  ASN A   5      -1.998  22.748  32.677  0.00  0.00    +0.158 C 
BRANCH   5   8
ATOM      6  C   PHE A   4      -1.607  21.203  30.913  0.00  0.00    +0.241 C 
ATOM      7  O   PHE A   4      -2.332  20.398  31.461  0.00  0.00    -0.273 OA
ATOM      8  N   ASN A   5      -1.360  22.386  31.413  0.00  0.00    -0.297 N 
ATOM      9  H   ASN A   5      -0.727  23.051  30.924  0.00  0.00    +0.150 HD
BRANCH   6  10
ATOM     10  CA  PHE A   4      -0.860  20.884  29.651  0.00  0.00    +0.153 C 
BRANCH  10  12
ATOM     11  C   PRO A   3       0.454  18.997  28.952  0.00  0.00    +0.241 C 
ATOM     12  N   PHE A   4      -0.608  19.448  29.608  0.00  0.00    -0.297 N 
ATOM     13  H   PHE A   4      -1.252  18.786  30.085  0.00  0.00    +0.150 HD
ATOM     14  O   PRO A   3       1.268  19.748  28.414  0.00  0.00    -0.273 OA
BRANCH  11  21
ATOM     15  C   THR A   2       0.192  16.706  31.131  0.00  0.00    +0.246 C 
ATOM     16  O   THR A   2       1.263  17.161  31.493  0.00  0.00    -0.273 OA
ATOM     17  N   PRO A   3      -0.221  16.714  29.854  0.00  0.00    -0.272 N 
ATOM     18  CD  PRO A   3      -1.310  15.926  29.285  0.00  0.00    +0.094 C 
ATOM     19  CG  PRO A   3      -0.856  15.691  27.858  0.00  0.00    +0.024 C 
ATOM     20  CB  PRO A   3      -0.186  17.011  27.530  0.00  0.00    +0.031 C 
ATOM     21  CA  PRO A   3       0.521  17.468  28.827  0.00  0.00    +0.152 C 
BRANCH  15  22
ATOM     22  CA  THR A   2      -0.748  16.087  32.156  0.00  0.00    +0.176 C 
BRANCH  22  24
ATOM     23  C   PRO A   1       0.494  14.335  33.129  0.00  0.00    +0.239 C 
ATOM     24  N   THR A   2       0.054  15.565  33.251  0.00  0.00    -0.295 N 
ATOM     25  H   THR A   2       0.269  16.139  34.091  0.00  0.00    +0.150 HD
ATOM     26  O   PRO A   1       0.082  13.599  32.246  0.00  0.00    -0.274 OA
BRANCH  23  31
ATOM     27  N   PRO A   1       1.095  13.853  35.557  0.00  0.00    -0.210 NA
ATOM     28  CD  PRO A   1       1.004  12.497  36.076  0.00  0.00    +0.089 C 
ATOM     29  CG  PRO A   1       1.332  11.615  34.865  0.00  0.00    +0.021 C 
ATOM     30  CB  PRO A   1       2.192  12.533  33.996  0.00  0.00    +0.028 C 
ATOM     31  CA  PRO A   1       1.562  13.928  34.164  0.00  0.00    +0.149 C 
ENDBRANCH  23  31
ENDBRANCH  22  24
BRANCH  22  32
ATOM     32  CB  THR A   2      -1.695  17.139  32.743  0.00  0.00    +0.137 C 
ATOM     33  CG2 THR A   2      -0.965  18.180  33.583  0.00  0.00    +0.034 C 
BRANCH  32  34
ATOM     34  OG1 THR A   2      -2.417  17.766  31.681  0.00  0.00    -0.382 OA
ATOM     35  HG1 THR A   2      -3.030  18.446  32.057  0.00  0.00    +0.210 HD
ENDBRANCH  32  34
ENDBRANCH  22  32
ENDBRANCH  15  22
ENDBRANCH  11  21
ENDBRANCH  10  12
BRANCH  10  36
ATOM     36  CB  PHE A   4      -1.598  21.418  28.391  0.00  0.00    +0.055 C 
BRANCH  36  37
ATOM     37  CG  PHE A   4      -1.204  22.884  28.289  0.00  0.00    -0.020 A 
ATOM     38  CD2 PHE A   4      -2.142  23.909  28.590  0.00  0.00    -0.004 A 
ATOM     39  CE2 PHE A   4      -1.740  25.267  28.661  0.00  0.00    -0.000 A 
ATOM     40  CZ  PHE A   4      -0.389  25.612  28.422  0.00  0.00    -0.000 A 
ATOM     41  CE1 PHE A   4       0.557  24.604  28.100  0.00  0.00    -0.000 A 
ATOM     42  CD1 PHE A   4       0.146  23.241  28.029  0.00  0.00    -0.004 A 
ENDBRANCH  36  37
ENDBRANCH  10  36
ENDBRANCH   6  10
ENDBRANCH   5   8
BRANCH   5  43
ATOM     43  CB  ASN A   5      -1.347  24.025  33.256  0.00  0.00    +0.114 C 
BRANCH  43  44
ATOM     44  CG  ASN A   5       0.124  23.903  33.622  0.00  0.00    +0.222 C 
ATOM     45  OD1 ASN A   5       0.558  22.998  34.307  0.00  0.00    -0.275 OA
ATOM     46  ND2 ASN A   5       0.923  24.842  33.140  0.00  0.00    -0.329 N 
ATOM     47 HD21 ASN A   5       1.942  24.814  33.346  0.00  0.00    +0.145 HD
ATOM     48 HD22 ASN A   5       0.532  25.608  32.556  0.00  0.00    +0.145 HD
ENDBRANCH  43  44
ENDBRANCH   5  43
ENDBRANCH   1   5
BRANCH   2  49
ATOM     49  CA  VAL A   6      -5.769  22.713  32.647  0.00  0.00    +0.149 C 
BRANCH  49  50
ATOM     50  C   VAL A   6      -6.483  23.184  33.893  0.00  0.00    +0.241 C 
ATOM     51  O   VAL A   6      -6.265  22.640  34.967  0.00  0.00    -0.273 OA
ATOM     52  N   ILE A   7      -7.321  24.215  33.725  0.00  0.00    -0.297 N 
ATOM     53  H   ILE A   7      -7.359  24.691  32.801  0.00  0.00    +0.150 HD
BRANCH  52  54
ATOM     54  CA  ILE A   7      -8.189  24.692  34.811  0.00  0.00    +0.149 C 
BRANCH  54  55
ATOM     55  C   ILE A   7      -9.592  24.249  34.546  0.00  0.00    +0.241 C 
ATOM     56  N   GLY A   8     -10.115  23.447  35.453  0.00  0.00    -0.295 N 
ATOM     57  H   GLY A   8      -9.618  23.285  36.352  0.00  0.00    +0.150 HD
ATOM     58  O   ILE A   7     -10.149  24.620  33.530  0.00  0.00    -0.273 OA
BRANCH  56  59
ATOM     59  CA  GLY A   8     -11.382  22.791  35.198  0.00  0.00    +0.176 C 
BRANCH  59  60
ATOM     60  C   GLY A   8     -12.512  23.415  35.961  0.00  0.00    +0.243 C 
ATOM     61  O   GLY A   8     -12.379  24.398  36.674  0.00  0.00    -0.273 OA
ATOM     62  N   ARG A   9     -13.665  22.838  35.833  0.00  0.00    -0.297 N 
ATOM     63  H   ARG A   9     -13.761  21.924  35.346  0.00  0.00    +0.150 HD
BRANCH  62  64
ATOM     64  CA  ARG A   9     -14.822  23.520  36.399  0.00  0.00    +0.149 C 
BRANCH  64  65
ATOM     65  C   ARG A   9     -14.803  23.859  37.899  0.00  0.00    +0.241 C 
ATOM     66  N   ASN A  10     -14.043  23.087  38.655  0.00  0.00    -0.298 N 
ATOM     67  H   ASN A  10     -13.540  22.267  38.258  0.00  0.00    +0.150 HD
ATOM     68  O   ARG A   9     -15.403  24.819  38.375  0.00  0.00    -0.273 OA
BRANCH  66  69
ATOM     69  CA  ASN A  10     -13.937  23.432  40.074  0.00  0.00    +0.146 C 
BRANCH  69  70
ATOM     70  C   ASN A  10     -13.369  24.805  40.358  0.00  0.00    +0.227 C 
ATOM     71  O   ASN A  10     -13.764  25.454  41.309  0.00  0.00    -0.286 OA
ENDBRANCH  69  70
BRANCH  69  72
ATOM     72  CB  ASN A  10     -13.166  22.379  40.879  0.00  0.00    +0.112 C 
BRANCH  72  73
ATOM     73  CG  ASN A  10     -11.702  22.345  40.542  0.00  0.00    +0.222 C 
ATOM     74  ND2 ASN A  10     -10.910  22.201  41.581  0.00  0.00    -0.329 N 
ATOM     75 HD21 ASN A  10     -11.315  22.092  42.533  0.00  0.00    +0.145 HD
ATOM     76 HD22 ASN A  10      -9.878  22.196  41.451  0.00  0.00    +0.145 HD
ATOM     77  OD1 ASN A  10     -11.270  22.475  39.412  0.00  0.00    -0.275 OA
ENDBRANCH  72  73
ENDBRANCH  69  72
ENDBRANCH  66  69
ENDBRANCH  64  65
BRANCH  64  78
ATOM     78  CB  ARG A   9     -16.051  22.711  36.029  0.00  0.00    +0.033 C 
BRANCH  78  79
ATOM     79  CG  ARG A   9     -16.404  22.618  34.535  0.00  0.00    +0.045 C 
BRANCH  79  80
ATOM     80  CD  ARG A   9     -17.819  22.039  34.396  0.00  0.00    +0.174 C 
BRANCH  80  81
ATOM     81  NE  ARG A   9     -17.852  20.669  34.853  0.00  0.00    -0.265 N 
ATOM     82  CZ  ARG A   9     -18.446  20.303  35.984  0.00  0.00    +0.342 C 
ATOM     83  NH2 ARG A   9     -19.067  21.147  36.802  0.00  0.00    -0.292 N 
ATOM     84 HH21 ARG A   9     -19.512  20.794  37.673  0.00  0.00    +0.255 HD
ATOM     85 HH22 ARG A   9     -19.108  22.160  36.571  0.00  0.00    +0.255 HD
ATOM     86  NH1 ARG A   9     -18.395  19.034  36.329  0.00  0.00    -0.292 N 
ATOM     87 HH11 ARG A   9     -18.850  18.715  37.208  0.00  0.00    +0.255 HD
ATOM     88 HH12 ARG A   9     -17.900  18.350  35.722  0.00  0.00    +0.255 HD
ATOM     89  HE  ARG A   9     -17.392  19.939  34.273  0.00  0.00    +0.259 HD
ENDBRANCH  80  81
ENDBRANCH  79  80
ENDBRANCH  78  79
ENDBRANCH  64  78
ENDBRANCH  62  64
ENDBRANCH  59  60
ENDBRANCH  56  59
ENDBRANCH  54  55
BRANCH  54  90
ATOM     90  CB  ILE A   7      -8.248  26.212  34.836  0.00  0.00    +0.027 C 
ATOM     91  CG2 ILE A   7      -8.991  26.678  36.085  0.00  0.00    +0.002 C 
BRANCH  90  92
ATOM     92  CG1 ILE A   7      -6.917  26.944  34.722  0.00  0.00    +0.002 C 
ATOM     93  CD1 ILE A   7      -6.094  26.904  36.012  0.00  0.00    +0.000 C 
ENDBRANCH  90  92
ENDBRANCH  54  90
ENDBRANCH  52  54
ENDBRANCH  49  50
BRANCH  49  94
ATOM     94  CB  VAL A   6      -6.523  21.498  31.973  0.00  0.00    +0.027 C 
ATOM     95  CG2 VAL A   6      -7.215  20.540  32.924  0.00  0.00    +0.002 C 
ATOM     96  CG1 VAL A   6      -5.663  20.642  31.032  0.00  0.00    +0.002 C 
ENDBRANCH  49  94
ENDBRANCH   2  49
TORSDOF 33
REMARK  Name = ../refined-set-2016/1bwa/1bwa_pocket.pdb
REMARK  236 active torsions:
REMARK  status: ('A' for Active; 'I' for Inactive)
REMARK    1  A    between atoms: _1  and  _3
REMARK    2  A    between atoms: _3  and  _4
REMARK    3  A    between atoms: _3  and  _6
REMARK    4  A    between atoms: _6  and  _7
REMARK    5  A    between atoms: _7  and  _8
REMARK    6  A    between atoms: _8  and  _9
REMARK    7  A    between atoms: _18  and  _20
REMARK    8  A    between atoms: _20  and  _21
REMARK    9  A    between atoms: _20  and  _23
REMARK   10  A    between atoms: _23  and  _24
REMARK   11  A    between atoms: _27  and  _29
REMARK   12  A    between atoms: _29  and  _30
REMARK   13  A    between atoms: _29  and  _32
REMARK   14  A    between atoms: _32  and  _33
REMARK   15  A    between atoms: _36  and  _38
REMARK   16  A    between atoms: _38  and  _39
REMARK   17  A    between atoms: _38  and  _41
REMARK   18  A    between atoms: _41  and  _42
REMARK   19  A    between atoms: _45  and  _47
REMARK   20  A    between atoms: _47  and  _48
REMARK   21  A    between atoms: _47  and  _50
REMARK   22  A    between atoms: _50  and  _51
REMARK   23  A    between atoms: _54  and  _56
REMARK   24  A    between atoms: _56  and  _57
REMARK   25  A    between atoms: _59  and  _61
REMARK   26  A    between atoms: _61  and  _62
REMARK   27  A    between atoms: _65  and  _67
REMARK   28  A    between atoms: _67  and  _68
REMARK   29  A    between atoms: _67  and  _70
REMARK   30  A    between atoms: _70  and  _71
REMARK   31  A    between atoms: _74  and  _76
REMARK   32  A    between atoms: _76  and  _77
REMARK   33  A    between atoms: _76  and  _79
REMARK   34  A    between atoms: _79  and  _80
REMARK   35  A    between atoms: _83  and  _85
REMARK   36  A    between atoms: _85  and  _86
REMARK   37  A    between atoms: _85  and  _88
REMARK   38  A    between atoms: _88  and  _89
REMARK   39  A    between atoms: _92  and  _94
REMARK   40  A    between atoms: _94  and  _95
REMARK   41  A    between atoms: _94  and  _97
REMARK   42  A    between atoms: _100  and  _102
REMARK   43  A    between atoms: _102  and  _103
REMARK   44  A    between atoms: _102  and  _105
REMARK   45  A    between atoms: _105  and  _106
REMARK   46  A    between atoms: _109  and  _111
REMARK   47  A    between atoms: _111  and  _112
REMARK   48  A    between atoms: _111  and  _114
REMARK   49  A    between atoms: _114  and  _115
REMARK   50  A    between atoms: _115  and  _116
REMARK   51  A    between atoms: _116  and  _117
REMARK   52  A    between atoms: _117  and  _118
REMARK   53  A    between atoms: _122  and  _124
REMARK   54  A    between atoms: _124  and  _125
REMARK   55  A    between atoms: _124  and  _127
REMARK   56  A    between atoms: _127  and  _128
REMARK   57  A    between atoms: _128  and  _129
REMARK   58  A    between atoms: _131  and  _133
REMARK   59  A    between atoms: _133  and  _134
REMARK   60  A    between atoms: _133  and  _136
REMARK   61  A    between atoms: _136  and  _137
REMARK   62  A    between atoms: _140  and  _142
REMARK   63  A    between atoms: _142  and  _143
REMARK   64  A    between atoms: _145  and  _147
REMARK   65  A    between atoms: _147  and  _148
REMARK   66  A    between atoms: _150  and  _152
REMARK   67  A    between atoms: _152  and  _153
REMARK   68  A    between atoms: _152  and  _155
REMARK   69  A    between atoms: _155  and  _156
REMARK   70  A    between atoms: _159  and  _161
REMARK   71  A    between atoms: _161  and  _162
REMARK   72  A    between atoms: _164  and  _166
REMARK   73  A    between atoms: _166  and  _167
REMARK   74  A    between atoms: _169  and  _171
REMARK   75  A    between atoms: _171  and  _172
REMARK   76  A    between atoms: _171  and  _174
REMARK   77  A    between atoms: _174  and  _175
REMARK   78  A    between atoms: _181  and  _183
REMARK   79  A    between atoms: _183  and  _184
REMARK   80  A    between atoms: _183  and  _186
REMARK   81  A    between atoms: _186  and  _187
REMARK   82  A    between atoms: _190  and  _192
REMARK   83  A    between atoms: _192  and  _193
REMARK   84  A    between atoms: _192  and  _195
REMARK   85  A    between atoms: _195  and  _196
REMARK   86  A    between atoms: _200  and  _201
REMARK   87  A    between atoms: _206  and  _208
REMARK   88  A    between atoms: _208  and  _209
REMARK   89  A    between atoms: _208  and  _211
REMARK   90  A    between atoms: _211  and  _212
REMARK   91  A    between atoms: _216  and  _217
REMARK   92  A    between atoms: _222  and  _224
REMARK   93  A    between atoms: _224  and  _225
REMARK   94  A    between atoms: _224  and  _227
REMARK   95  A    between atoms: _227  and  _228
REMARK   96  A    between atoms: _234  and  _236
REMARK   97  A    between atoms: _236  and  _237
REMARK   98  A    between atoms: _236  and  _239
REMARK   99  A    between atoms: _239  and  _240
REMARK  100  A    between atoms: _245  and  _247
REMARK  101  A    between atoms: _247  and  _248
REMARK  102  A    between atoms: _247  and  _250
REMARK  103  A    between atoms: _253  and  _255
REMARK  104  A    between atoms: _255  and  _256
REMARK  105  A    between atoms: _255  and  _258
REMARK  106  A    between atoms: _258  and  _259
REMARK  107  A    between atoms: _262  and  _264
REMARK  108  A    between atoms: _264  and  _265
REMARK  109  A    between atoms: _267  and  _269
REMARK  110  A    between atoms: _269  and  _270
REMARK  111  A    between atoms: _269  and  _272
REMARK  112  A    between atoms: _272  and  _273
REMARK  113  A    between atoms: _273  and  _274
REMARK  114  A    between atoms: _274  and  _275
REMARK  115  A    between atoms: _284  and  _286
REMARK  116  A    between atoms: _286  and  _287
REMARK  117  A    between atoms: _286  and  _289
REMARK  118  A    between atoms: _289  and  _290
REMARK  119  A    between atoms: _295  and  _297
REMARK  120  A    between atoms: _297  and  _298
REMARK  121  A    between atoms: _297  and  _300
REMARK  122  A    between atoms: _300  and  _301
REMARK  123  A    between atoms: _301  and  _302
REMARK  124  A    between atoms: _302  and  _303
REMARK  125  A    between atoms: _312  and  _314
REMARK  126  A    between atoms: _314  and  _315
REMARK  127  A    between atoms: _314  and  _317
REMARK  128  A    between atoms: _317  and  _318
REMARK  129  A    between atoms: _321  and  _323
REMARK  130  A    between atoms: _323  and  _324
REMARK  131  A    between atoms: _323  and  _326
REMARK  132  A    between atoms: _326  and  _327
REMARK  133  A    between atoms: _330  and  _332
REMARK  134  A    between atoms: _332  and  _333
REMARK  135  A    between atoms: _332  and  _335
REMARK  136  A    between atoms: _335  and  _336
REMARK  137  A    between atoms: _339  and  _341
REMARK  138  A    between atoms: _341  and  _342
REMARK  139  A    between atoms: _341  and  _344
REMARK  140  A    between atoms: _344  and  _345
REMARK  141  A    between atoms: _348  and  _350
REMARK  142  A    between atoms: _350  and  _351
REMARK  143  A    between atoms: _353  and  _355
REMARK  144  A    between atoms: _355  and  _356
REMARK  145  A    between atoms: _359  and  _361
REMARK  146  A    between atoms: _361  and  _362
REMARK  147  A    between atoms: _361  and  _364
REMARK  148  A    between atoms: _364  and  _365
REMARK  149  A    between atoms: _368  and  _370
REMARK  150  A    between atoms: _370  and  _371
REMARK  151  A    between atoms: _370  and  _373
REMARK  152  A    between atoms: _373  and  _374
REMARK  153  A    between atoms: _377  and  _379
REMARK  154  A    between atoms: _379  and  _380
REMARK  155  A    between atoms: _379  and  _382
REMARK  156  A    between atoms: _382  and  _383
REMARK  157  A    between atoms: _386  and  _388
REMARK  158  A    between atoms: _388  and  _389
REMARK  159  A    between atoms: _388  and  _391
REMARK  160  A    between atoms: _394  and  _396
REMARK  161  A    between atoms: _396  and  _397
REMARK  162  A    between atoms: _396  and  _399
REMARK  163  A    between atoms: _399  and  _400
REMARK  164  A    between atoms: _403  and  _405
REMARK  165  A    between atoms: _405  and  _406
REMARK  166  A    between atoms: _405  and  _408
REMARK  167  A    between atoms: _408  and  _409
REMARK  168  A    between atoms: _409  and  _410
REMARK  169  A    between atoms: _410  and  _411
REMARK  170  A    between atoms: _411  and  _412
REMARK  171  A    between atoms: _416  and  _418
REMARK  172  A    between atoms: _418  and  _419
REMARK  173  A    between atoms: _418  and  _421
REMARK  174  A    between atoms: _421  and  _422
REMARK  175  A    between atoms: _422  and  _423
REMARK  176  A    between atoms: _425  and  _427
REMARK  177  A    between atoms: _427  and  _428
REMARK  178  A    between atoms: _427  and  _430
REMARK  179  A    between atoms: _430  and  _431
REMARK  180  A    between atoms: _434  and  _436
REMARK  181  A    between atoms: _436  and  _437
REMARK  182  A    between atoms: _439  and  _441
REMARK  183  A    between atoms: _441  and  _442
REMARK  184  A    between atoms: _444  and  _446
REMARK  185  A    between atoms: _446  and  _447
REMARK  186  A    between atoms: _446  and  _449
REMARK  187  A    between atoms: _449  and  _450
REMARK  188  A    between atoms: _453  and  _455
REMARK  189  A    between atoms: _455  and  _456
REMARK  190  A    between atoms: _458  and  _460
REMARK  191  A    between atoms: _460  and  _461
REMARK  192  A    between atoms: _463  and  _465
REMARK  193  A    between atoms: _465  and  _466
REMARK  194  A    between atoms: _465  and  _468
REMARK  195  A    between atoms: _468  and  _469
REMARK  196  A    between atoms: _475  and  _477
REMARK  197  A    between atoms: _477  and  _478
REMARK  198  A    between atoms: _477  and  _480
REMARK  199  A    between atoms: _480  and  _481
REMARK  200  A    between atoms: _484  and  _486
REMARK  201  A    between atoms: _486  and  _487
REMARK  202  A    between atoms: _486  and  _489
REMARK  203  A    between atoms: _489  and  _490
REMARK  204  A    between atoms: _494  and  _495
REMARK  205  A    between atoms: _500  and  _502
REMARK  206  A    between atoms: _502  and  _503
REMARK  207  A    between atoms: _502  and  _505
REMARK  208  A    between atoms: _505  and  _506
REMARK  209  A    between atoms: _510  and  _511
REMARK  210  A    between atoms: _516  and  _518
REMARK  211  A    between atoms: _518  and  _519
REMARK  212  A    between atoms: _518  and  _521
REMARK  213  A    between atoms: _521  and  _522
REMARK  214  A    between atoms: _528  and  _530
REMARK  215  A    between atoms: _530  and  _531
REMARK  216  A    between atoms: _530  and  _533
REMARK  217  A    between atoms: _533  and  _534
REMARK  218  A    between atoms: _539  and  _541
REMARK  219  A    between atoms: _541  and  _542
REMARK  220  A    between atoms: _541  and  _544
REMARK  221  A    between atoms: _547  and  _549
REMARK  222  A    between atoms: _549  and  _550
REMARK  223  A    between atoms: _549  and  _552
REMARK  224  A    between atoms: _552  and  _553
REMARK  225  A    between atoms: _556  and  _558
REMARK  226  A    between atoms: _558  and  _559
REMARK  227  A    between atoms: _561  and  _563
REMARK  228  A    between atoms: _563  and  _564
REMARK  229  A    between atoms: _563  and  _566
REMARK  230  A    between atoms: _566  and  _567
REMARK  231  A    between atoms: _567  and  _568
REMARK  232  A    between atoms: _568  and  _569
REMARK  233  A    between atoms: _578  and  _580
REMARK  234  A    between atoms: _580  and  _581
REMARK  235  A    between atoms: _580  and  _583
REMARK  236  A    between atoms: _583  and  _584
REMARK                            x       y       z     vdW  Elec       q    Type
REMARK                         _______ _______ _______ _____ _____    ______ ____
ROOT
ATOM      1  NE  ARG A   1     -19.010  15.317  33.853  0.00  0.00    -0.265 N 
ATOM      2  HE  ARG A   1     -19.122  15.234  34.884  0.00  0.00    +0.259 HD
ATOM      3  CZ  ARG A   1     -17.982  14.714  33.240  0.00  0.00    +0.342 C 
ATOM      4  NH2 ARG A   1     -17.223  13.862  33.927  0.00  0.00    -0.292 N 
ATOM      5 HH21 ARG A   1     -17.431  13.671  34.928  0.00  0.00    +0.255 HD
ATOM      6 HH22 ARG A   1     -16.422  13.388  33.463  0.00  0.00    +0.255 HD
ATOM      7  NH1 ARG A   1     -17.696  14.932  31.954  0.00  0.00    -0.292 N 
ATOM      8 HH11 ARG A   1     -16.890  14.446  31.511  0.00  0.00    +0.255 HD
ATOM      9 HH12 ARG A   1     -18.279  15.587  31.395  0.00  0.00    +0.255 HD
ENDROOT
BRANCH   1  10
ATOM     10  CD  ARG A   1     -19.978  16.095  33.071  0.00  0.00    +0.174 C 
BRANCH  10  11
ATOM     11  CG  ARG A   1     -20.108  17.546  33.569  0.00  0.00    +0.045 C 
BRANCH  11  12
ATOM     12  CB  ARG A   1     -21.111  18.319  32.732  0.00  0.00    +0.029 C 
BRANCH  12  13
ATOM     13  CA  ARG A   1     -21.203  19.814  33.051  0.00  0.00    +0.133 C 
BRANCH  13  14
ATOM     14  N   ARG A   1     -21.828  20.017  34.359  0.00  0.00    -0.239 NA
ATOM     15  H   ARG A   1     -22.098  19.207  34.953  0.00  0.00    +0.142 HD
ENDBRANCH  13  14
BRANCH  13  16
ATOM     16  C   ARG A   1     -22.064  20.420  31.955  0.00  0.00    +0.224 C 
ATOM     17  O   ARG A   1     -23.269  20.206  31.951  0.00  0.00    -0.287 OA
ENDBRANCH  13  16
ENDBRANCH  12  13
ENDBRANCH  11  12
ENDBRANCH  10  11
ENDBRANCH   1  10
TORSDOF 6
REMARK  Name = ../refined-set-2016/1bwa/1bwa_pocket.pdb
REMARK  236 active torsions:
REMARK  status: ('A' for Active; 'I' for Inactive)
REMARK    1  A    between atoms: _1  and  _3
REMARK    2  A    between atoms: _3  and  _4
REMARK    3  A    between atoms: _3  and  _6
REMARK    4  A    between atoms: _6  and  _7
REMARK    5  A    between atoms: _7  and  _8
REMARK    6  A    between atoms: _8  and  _9
REMARK    7  A    between atoms: _18  and  _20
REMARK    8  A    between atoms: _20  and  _21
REMARK    9  A    between atoms: _20  and  _23
REMARK   10  A    between atoms: _23  and  _24
REMARK   11  A    between atoms: _27  and  _29
REMARK   12  A    between atoms: _29  and  _30
REMARK   13  A    between atoms: _29  and  _32
REMARK   14  A    between atoms: _32  and  _33
REMARK   15  A    between atoms: _36  and  _38
REMARK   16  A    between atoms: _38  and  _39
REMARK   17  A    between atoms: _38  and  _41
REMARK   18  A    between atoms: _41  and  _42
REMARK   19  A    between atoms: _45  and  _47
REMARK   20  A    between atoms: _47  and  _48
REMARK   21  A    between atoms: _47  and  _50
REMARK   22  A    between atoms: _50  and  _51
REMARK   23  A    between atoms: _54  and  _56
REMARK   24  A    between atoms: _56  and  _57
REMARK   25  A    between atoms: _59  and  _61
REMARK   26  A    between atoms: _61  and  _62
REMARK   27  A    between atoms: _65  and  _67
REMARK   28  A    between atoms: _67  and  _68
REMARK   29  A    between atoms: _67  and  _70
REMARK   30  A    between atoms: _70  and  _71
REMARK   31  A    between atoms: _74  and  _76
REMARK   32  A    between atoms: _76  and  _77
REMARK   33  A    between atoms: _76  and  _79
REMARK   34  A    between atoms: _79  and  _80
REMARK   35  A    between atoms: _83  and  _85
REMARK   36  A    between atoms: _85  and  _86
REMARK   37  A    between atoms: _85  and  _88
REMARK   38  A    between atoms: _88  and  _89
REMARK   39  A    between atoms: _92  and  _94
REMARK   40  A    between atoms: _94  and  _95
REMARK   41  A    between atoms: _94  and  _97
REMARK   42  A    between atoms: _100  and  _102
REMARK   43  A    between atoms: _102  and  _103
REMARK   44  A    between atoms: _102  and  _105
REMARK   45  A    between atoms: _105  and  _106
REMARK   46  A    between atoms: _109  and  _111
REMARK   47  A    between atoms: _111  and  _112
REMARK   48  A    between atoms: _111  and  _114
REMARK   49  A    between atoms: _114  and  _115
REMARK   50  A    between atoms: _115  and  _116
REMARK   51  A    between atoms: _116  and  _117
REMARK   52  A    between atoms: _117  and  _118
REMARK   53  A    between atoms: _122  and  _124
REMARK   54  A    between atoms: _124  and  _125
REMARK   55  A    between atoms: _124  and  _127
REMARK   56  A    between atoms: _127  and  _128
REMARK   57  A    between atoms: _128  and  _129
REMARK   58  A    between atoms: _131  and  _133
REMARK   59  A    between atoms: _133  and  _134
REMARK   60  A    between atoms: _133  and  _136
REMARK   61  A    between atoms: _136  and  _137
REMARK   62  A    between atoms: _140  and  _142
REMARK   63  A    between atoms: _142  and  _143
REMARK   64  A    between atoms: _145  and  _147
REMARK   65  A    between atoms: _147  and  _148
REMARK   66  A    between atoms: _150  and  _152
REMARK   67  A    between atoms: _152  and  _153
REMARK   68  A    between atoms: _152  and  _155
REMARK   69  A    between atoms: _155  and  _156
REMARK   70  A    between atoms: _159  and  _161
REMARK   71  A    between atoms: _161  and  _162
REMARK   72  A    between atoms: _164  and  _166
REMARK   73  A    between atoms: _166  and  _167
REMARK   74  A    between atoms: _169  and  _171
REMARK   75  A    between atoms: _171  and  _172
REMARK   76  A    between atoms: _171  and  _174
REMARK   77  A    between atoms: _174  and  _175
REMARK   78  A    between atoms: _181  and  _183
REMARK   79  A    between atoms: _183  and  _184
REMARK   80  A    between atoms: _183  and  _186
REMARK   81  A    between atoms: _186  and  _187
REMARK   82  A    between atoms: _190  and  _192
REMARK   83  A    between atoms: _192  and  _193
REMARK   84  A    between atoms: _192  and  _195
REMARK   85  A    between atoms: _195  and  _196
REMARK   86  A    between atoms: _200  and  _201
REMARK   87  A    between atoms: _206  and  _208
REMARK   88  A    between atoms: _208  and  _209
REMARK   89  A    between atoms: _208  and  _211
REMARK   90  A    between atoms: _211  and  _212
REMARK   91  A    between atoms: _216  and  _217
REMARK   92  A    between atoms: _222  and  _224
REMARK   93  A    between atoms: _224  and  _225
REMARK   94  A    between atoms: _224  and  _227
REMARK   95  A    between atoms: _227  and  _228
REMARK   96  A    between atoms: _234  and  _236
REMARK   97  A    between atoms: _236  and  _237
REMARK   98  A    between atoms: _236  and  _239
REMARK   99  A    between atoms: _239  and  _240
REMARK  100  A    between atoms: _245  and  _247
REMARK  101  A    between atoms: _247  and  _248
REMARK  102  A    between atoms: _247  and  _250
REMARK  103  A    between atoms: _253  and  _255
REMARK  104  A    between atoms: _255  and  _256
REMARK  105  A    between atoms: _255  and  _258
REMARK  106  A    between atoms: _258  and  _259
REMARK  107  A    between atoms: _262  and  _264
REMARK  108  A    between atoms: _264  and  _265
REMARK  109  A    between atoms: _267  and  _269
REMARK  110  A    between atoms: _269  and  _270
REMARK  111  A    between atoms: _269  and  _272
REMARK  112  A    between atoms: _272  and  _273
REMARK  113  A    between atoms: _273  and  _274
REMARK  114  A    between atoms: _274  and  _275
REMARK  115  A    between atoms: _284  and  _286
REMARK  116  A    between atoms: _286  and  _287
REMARK  117  A    between atoms: _286  and  _289
REMARK  118  A    between atoms: _289  and  _290
REMARK  119  A    between atoms: _295  and  _297
REMARK  120  A    between atoms: _297  and  _298
REMARK  121  A    between atoms: _297  and  _300
REMARK  122  A    between atoms: _300  and  _301
REMARK  123  A    between atoms: _301  and  _302
REMARK  124  A    between atoms: _302  and  _303
REMARK  125  A    between atoms: _312  and  _314
REMARK  126  A    between atoms: _314  and  _315
REMARK  127  A    between atoms: _314  and  _317
REMARK  128  A    between atoms: _317  and  _318
REMARK  129  A    between atoms: _321  and  _323
REMARK  130  A    between atoms: _323  and  _324
REMARK  131  A    between atoms: _323  and  _326
REMARK  132  A    between atoms: _326  and  _327
REMARK  133  A    between atoms: _330  and  _332
REMARK  134  A    between atoms: _332  and  _333
REMARK  135  A    between atoms: _332  and  _335
REMARK  136  A    between atoms: _335  and  _336
REMARK  137  A    between atoms: _339  and  _341
REMARK  138  A    between atoms: _341  and  _342
REMARK  139  A    between atoms: _341  and  _344
REMARK  140  A    between atoms: _344  and  _345
REMARK  141  A    between atoms: _348  and  _350
REMARK  142  A    between atoms: _350  and  _351
REMARK  143  A    between atoms: _353  and  _355
REMARK  144  A    between atoms: _355  and  _356
REMARK  145  A    between atoms: _359  and  _361
REMARK  146  A    between atoms: _361  and  _362
REMARK  147  A    between atoms: _361  and  _364
REMARK  148  A    between atoms: _364  and  _365
REMARK  149  A    between atoms: _368  and  _370
REMARK  150  A    between atoms: _370  and  _371
REMARK  151  A    between atoms: _370  and  _373
REMARK  152  A    between atoms: _373  and  _374
REMARK  153  A    between atoms: _377  and  _379
REMARK  154  A    between atoms: _379  and  _380
REMARK  155  A    between atoms: _379  and  _382
REMARK  156  A    between atoms: _382  and  _383
REMARK  157  A    between atoms: _386  and  _388
REMARK  158  A    between atoms: _388  and  _389
REMARK  159  A    between atoms: _388  and  _391
REMARK  160  A    between atoms: _394  and  _396
REMARK  161  A    between atoms: _396  and  _397
REMARK  162  A    between atoms: _396  and  _399
REMARK  163  A    between atoms: _399  and  _400
REMARK  164  A    between atoms: _403  and  _405
REMARK  165  A    between atoms: _405  and  _406
REMARK  166  A    between atoms: _405  and  _408
REMARK  167  A    between atoms: _408  and  _409
REMARK  168  A    between atoms: _409  and  _410
REMARK  169  A    between atoms: _410  and  _411
REMARK  170  A    between atoms: _411  and  _412
REMARK  171  A    between atoms: _416  and  _418
REMARK  172  A    between atoms: _418  and  _419
REMARK  173  A    between atoms: _418  and  _421
REMARK  174  A    between atoms: _421  and  _422
REMARK  175  A    between atoms: _422  and  _423
REMARK  176  A    between atoms: _425  and  _427
REMARK  177  A    between atoms: _427  and  _428
REMARK  178  A    between atoms: _427  and  _430
REMARK  179  A    between atoms: _430  and  _431
REMARK  180  A    between atoms: _434  and  _436
REMARK  181  A    between atoms: _436  and  _437
REMARK  182  A    between atoms: _439  and  _441
REMARK  183  A    between atoms: _441  and  _442
REMARK  184  A    between atoms: _444  and  _446
REMARK  185  A    between atoms: _446  and  _447
REMARK  186  A    between atoms: _446  and  _449
REMARK  187  A    between atoms: _449  and  _450
REMARK  188  A    between atoms: _453  and  _455
REMARK  189  A    between atoms: _455  and  _456
REMARK  190  A    between atoms: _458  and  _460
REMARK  191  A    between atoms: _460  and  _461
REMARK  192  A    between atoms: _463  and  _465
REMARK  193  A    between atoms: _465  and  _466
REMARK  194  A    between atoms: _465  and  _468
REMARK  195  A    between atoms: _468  and  _469
REMARK  196  A    between atoms: _475  and  _477
REMARK  197  A    between atoms: _477  and  _478
REMARK  198  A    between atoms: _477  and  _480
REMARK  199  A    between atoms: _480  and  _481
REMARK  200  A    between atoms: _484  and  _486
REMARK  201  A    between atoms: _486  and  _487
REMARK  202  A    between atoms: _486  and  _489
REMARK  203  A    between atoms: _489  and  _490
REMARK  204  A    between atoms: _494  and  _495
REMARK  205  A    between atoms: _500  and  _502
REMARK  206  A    between atoms: _502  and  _503
REMARK  207  A    between atoms: _502  and  _505
REMARK  208  A    between atoms: _505  and  _506
REMARK  209  A    between atoms: _510  and  _511
REMARK  210  A    between atoms: _516  and  _518
REMARK  211  A    between atoms: _518  and  _519
REMARK  212  A    between atoms: _518  and  _521
REMARK  213  A    between atoms: _521  and  _522
REMARK  214  A    between atoms: _528  and  _530
REMARK  215  A    between atoms: _530  and  _531
REMARK  216  A    between atoms: _530  and  _533
REMARK  217  A    between atoms: _533  and  _534
REMARK  218  A    between atoms: _539  and  _541
REMARK  219  A    between atoms: _541  and  _542
REMARK  220  A    between atoms: _541  and  _544
REMARK  221  A    between atoms: _547  and  _549
REMARK  222  A    between atoms: _549  and  _550
REMARK  223  A    between atoms: _549  and  _552
REMARK  224  A    between atoms: _552  and  _553
REMARK  225  A    between atoms: _556  and  _558
REMARK  226  A    between atoms: _558  and  _559
REMARK  227  A    between atoms: _561  and  _563
REMARK  228  A    between atoms: _563  and  _564
REMARK  229  A    between atoms: _563  and  _566
REMARK  230  A    between atoms: _566  and  _567
REMARK  231  A    between atoms: _567  and  _568
REMARK  232  A    between atoms: _568  and  _569
REMARK  233  A    between atoms: _578  and  _580
REMARK  234  A    between atoms: _580  and  _581
REMARK  235  A    between atoms: _580  and  _583
REMARK  236  A    between atoms: _583  and  _584
REMARK                            x       y       z     vdW  Elec       q    Type
REMARK                         _______ _______ _______ _____ _____    ______ ____
ROOT
ATOM      1  C   ALA A   6     -10.159  21.212  21.706  0.00  0.00    +0.241 C 
ATOM      2  O   ALA A   6     -11.020  21.953  21.259  0.00  0.00    -0.273 OA
ATOM      3  N   ASP A   7      -9.089  20.871  21.007  0.00  0.00    -0.297 N 
ATOM      4  H   ASP A   7      -8.410  20.162  21.351  0.00  0.00    +0.150 HD
ENDROOT
BRANCH   1   5
ATOM      5  CA  ALA A   6     -10.244  20.616  23.083  0.00  0.00    +0.149 C 
ATOM      6  CB  ALA A   6     -11.405  19.619  23.076  0.00  0.00    +0.031 C 
BRANCH   5   9
ATOM      7  C   GLY A   5      -9.466  21.954  24.951  0.00  0.00    +0.243 C 
ATOM      8  O   GLY A   5      -8.347  21.465  24.875  0.00  0.00    -0.273 OA
ATOM      9  N   ALA A   6     -10.453  21.649  24.092  0.00  0.00    -0.297 N 
ATOM     10  H   ALA A   6     -11.364  22.148  24.146  0.00  0.00    +0.150 HD
BRANCH   7  11
ATOM     11  CA  GLY A   5      -9.823  22.892  26.085  0.00  0.00    +0.176 C 
BRANCH  11  13
ATOM     12  C   THR A   4     -11.483  24.344  25.388  0.00  0.00    +0.243 C 
ATOM     13  N   GLY A   5     -11.232  23.276  26.111  0.00  0.00    -0.295 N 
ATOM     14  H   GLY A   5     -11.959  22.759  26.645  0.00  0.00    +0.150 HD
ATOM     15  O   THR A   4     -10.590  24.937  24.802  0.00  0.00    -0.273 OA
BRANCH  12  16
ATOM     16  CA  THR A   4     -12.942  24.760  25.343  0.00  0.00    +0.176 C 
BRANCH  16  18
ATOM     17  C   ASP A   3     -14.144  22.673  25.101  0.00  0.00    +0.241 C 
ATOM     18  N   THR A   4     -13.917  23.775  25.829  0.00  0.00    -0.295 N 
ATOM     19  H   THR A   4     -14.423  23.930  26.724  0.00  0.00    +0.150 HD
ATOM     20  O   ASP A   3     -13.509  22.411  24.095  0.00  0.00    -0.273 OA
BRANCH  17  21
ATOM     21  CA  ASP A   3     -15.160  21.710  25.661  0.00  0.00    +0.160 C 
BRANCH  21  24
ATOM     22  C   LEU A   2     -17.490  21.924  25.860  0.00  0.00    +0.241 C 
ATOM     23  O   LEU A   2     -17.405  22.114  27.070  0.00  0.00    -0.273 OA
ATOM     24  N   ASP A   3     -16.444  21.873  25.050  0.00  0.00    -0.297 N 
ATOM     25  H   ASP A   3     -16.550  21.948  24.018  0.00  0.00    +0.150 HD
BRANCH  22  26
ATOM     26  CA  LEU A   2     -18.829  21.724  25.185  0.00  0.00    +0.149 C 
BRANCH  26  28
ATOM     27  C   LEU A   1     -19.293  19.405  25.358  0.00  0.00    +0.238 C 
ATOM     28  N   LEU A   2     -19.533  20.610  25.803  0.00  0.00    -0.297 N 
ATOM     29  H   LEU A   2     -20.209  20.769  26.578  0.00  0.00    +0.150 HD
ATOM     30  O   LEU A   1     -18.619  19.188  24.358  0.00  0.00    -0.274 OA
BRANCH  27  31
ATOM     31  CA  LEU A   1     -19.912  18.289  26.166  0.00  0.00    +0.145 C 
BRANCH  31  32
ATOM     32  N   LEU A   1     -20.466  17.311  25.245  0.00  0.00    -0.238 NA
ATOM     33  H   LEU A   1     -19.843  16.577  24.852  0.00  0.00    +0.142 HD
ENDBRANCH  31  32
BRANCH  31  34
ATOM     34  CB  LEU A   1     -18.818  17.538  26.942  0.00  0.00    +0.026 C 
BRANCH  34  35
ATOM     35  CG  LEU A   1     -18.374  18.004  28.322  0.00  0.00    +0.002 C 
ATOM     36  CD2 LEU A   1     -19.539  18.097  29.306  0.00  0.00    +0.000 C 
ATOM     37  CD1 LEU A   1     -17.324  17.014  28.838  0.00  0.00    +0.000 C 
ENDBRANCH  34  35
ENDBRANCH  31  34
ENDBRANCH  27  31
ENDBRANCH  26  28
BRANCH  26  38
ATOM     38  CB  LEU A   2     -19.622  23.021  25.362  0.00  0.00    +0.029 C 
BRANCH  38  39
ATOM     39  CG  LEU A   2     -21.048  23.013  24.825  0.00  0.00    +0.002 C 
ATOM     40  CD2 LEU A   2     -21.724  24.295  25.285  0.00  0.00    +0.000 C 
ATOM     41  CD1 LEU A   2     -21.123  22.836  23.316  0.00  0.00    +0.000 C 
ENDBRANCH  38  39
ENDBRANCH  26  38
ENDBRANCH  22  26
ENDBRANCH  21  24
BRANCH  21  42
ATOM     42  CB  ASP A   3     -14.796  20.254  25.404  0.00  0.00    +0.143 C 
BRANCH  42  43
ATOM     43  CG  ASP A   3     -13.540  19.831  26.133  0.00  0.00    +0.367 C 
ATOM     44  OD2 ASP A   3     -12.775  20.661  26.641  0.00  0.00    -0.246 OA
ATOM     45  OD1 ASP A   3     -13.326  18.637  26.182  0.00  0.00    -0.246 OA
ENDBRANCH  42  43
ENDBRANCH  21  42
ENDBRANCH  17  21
ENDBRANCH  16  18
BRANCH  16  46
ATOM     46  CB  THR A   4     -13.151  26.089  26.078  0.00  0.00    +0.137 C 
ATOM     47  CG2 THR A   4     -14.557  26.642  25.857  0.00  0.00    +0.034 C 
BRANCH  46  48
ATOM     48  OG1 THR A   4     -12.971  25.906  27.496  0.00  0.00    -0.382 OA
ATOM     49  HG1 THR A   4     -12.053  25.578  27.671  0.00  0.00    +0.210 HD
ENDBRANCH  46  48
ENDBRANCH  16  46
ENDBRANCH  12  16
ENDBRANCH  11  13
ENDBRANCH   7  11
ENDBRANCH   5   9
ENDBRANCH   1   5
BRANCH   3  50
ATOM     50  CA  ASP A   7      -8.914  21.550  19.718  0.00  0.00    +0.160 C 
BRANCH  50  51
ATOM     51  C   ASP A   7      -9.915  21.066  18.720  0.00  0.00    +0.241 C 
ATOM     52  N   ASP A   8     -10.104  19.757  18.768  0.00  0.00    -0.297 N 
ATOM     53  H   ASP A   8      -9.630  19.218  19.521  0.00  0.00    +0.150 HD
ATOM     54  O   ASP A   7     -10.477  21.828  17.964  0.00  0.00    -0.273 OA
BRANCH  52  55
ATOM     55  CA  ASP A   8     -10.943  19.031  17.819  0.00  0.00    +0.160 C 
BRANCH  55  56
ATOM     56  C   ASP A   8     -12.139  18.466  18.539  0.00  0.00    +0.241 C 
ATOM     57  O   ASP A   8     -12.096  18.276  19.740  0.00  0.00    -0.273 OA
ATOM     58  N   THR A   9     -13.173  18.175  17.766  0.00  0.00    -0.295 N 
ATOM     59  H   THR A   9     -13.130  18.462  16.767  0.00  0.00    +0.150 HD
BRANCH  58  60
ATOM     60  CA  THR A   9     -14.373  17.476  18.226  0.00  0.00    +0.176 C 
BRANCH  60  61
ATOM     61  C   THR A   9     -14.204  15.995  18.042  0.00  0.00    +0.243 C 
ATOM     62  N   VAL A  10     -14.552  15.255  19.061  0.00  0.00    -0.297 N 
ATOM     63  H   VAL A  10     -14.928  15.696  19.924  0.00  0.00    +0.150 HD
ATOM     64  O   THR A   9     -13.774  15.542  16.994  0.00  0.00    -0.273 OA
BRANCH  62  65
ATOM     65  CA  VAL A  10     -14.408  13.801  18.978  0.00  0.00    +0.149 C 
BRANCH  65  66
ATOM     66  C   VAL A  10     -15.600  13.112  19.656  0.00  0.00    +0.241 C 
ATOM     67  O   VAL A  10     -16.073  13.484  20.730  0.00  0.00    -0.273 OA
ATOM     68  N   LEU A  11     -16.124  12.135  18.925  0.00  0.00    -0.298 N 
ATOM     69  H   LEU A  11     -15.636  11.821  18.062  0.00  0.00    +0.150 HD
BRANCH  68  70
ATOM     70  CA  LEU A  11     -17.356  11.507  19.311  0.00  0.00    +0.137 C 
BRANCH  70  71
ATOM     71  C   LEU A  11     -17.132  10.035  19.473  0.00  0.00    +0.227 C 
ATOM     72  O   LEU A  11     -16.204   9.426  18.949  0.00  0.00    -0.286 OA
ENDBRANCH  70  71
BRANCH  70  73
ATOM     73  CB  LEU A  11     -18.369  11.758  18.214  0.00  0.00    +0.028 C 
BRANCH  73  74
ATOM     74  CG  LEU A  11     -18.584  13.208  17.798  0.00  0.00    +0.002 C 
ATOM     75  CD2 LEU A  11     -19.372  14.041  18.787  0.00  0.00    +0.000 C 
ATOM     76  CD1 LEU A  11     -19.350  13.180  16.511  0.00  0.00    +0.000 C 
ENDBRANCH  73  74
ENDBRANCH  70  73
ENDBRANCH  68  70
ENDBRANCH  65  66
BRANCH  65  77
ATOM     77  CB  VAL A  10     -13.020  13.372  19.543  0.00  0.00    +0.027 C 
ATOM     78  CG2 VAL A  10     -12.693  14.060  20.859  0.00  0.00    +0.002 C 
ATOM     79  CG1 VAL A  10     -12.820  11.848  19.639  0.00  0.00    +0.002 C 
ENDBRANCH  65  77
ENDBRANCH  62  65
ENDBRANCH  60  61
BRANCH  60  80
ATOM     80  CB  THR A   9     -15.515  17.971  17.335  0.00  0.00    +0.137 C 
ATOM     81  CG2 THR A   9     -16.812  17.197  17.517  0.00  0.00    +0.034 C 
BRANCH  80  82
ATOM     82  OG1 THR A   9     -15.726  19.362  17.575  0.00  0.00    -0.382 OA
ATOM     83  HG1 THR A   9     -14.898  19.861  17.364  0.00  0.00    +0.210 HD
ENDBRANCH  80  82
ENDBRANCH  60  80
ENDBRANCH  58  60
ENDBRANCH  55  56
BRANCH  55  84
ATOM     84  CB  ASP A   8     -10.175  17.819  17.314  0.00  0.00    +0.143 C 
BRANCH  84  85
ATOM     85  CG  ASP A   8      -9.180  18.144  16.225  0.00  0.00    +0.367 C 
ATOM     86  OD2 ASP A   8      -8.275  17.323  16.020  0.00  0.00    -0.246 OA
ATOM     87  OD1 ASP A   8      -9.310  19.193  15.575  0.00  0.00    -0.246 OA
ENDBRANCH  84  85
ENDBRANCH  55  84
ENDBRANCH  52  55
ENDBRANCH  50  51
BRANCH  50  88
ATOM     88  CB  ASP A   7      -7.529  21.332  19.088  0.00  0.00    +0.143 C 
BRANCH  88  89
ATOM     89  CG  ASP A   7      -6.399  21.849  19.940  0.00  0.00    +0.367 C 
ATOM     90  OD2 ASP A   7      -6.564  22.823  20.661  0.00  0.00    -0.246 OA
ATOM     91  OD1 ASP A   7      -5.326  21.271  19.873  0.00  0.00    -0.246 OA
ENDBRANCH  88  89
ENDBRANCH  50  88
ENDBRANCH   3  50
TORSDOF 39
REMARK  Name = ../refined-set-2016/1bwa/1bwa_pocket.pdb
REMARK  236 active torsions:
REMARK  status: ('A' for Active; 'I' for Inactive)
REMARK    1  A    between atoms: _1  and  _3
REMARK    2  A    between atoms: _3  and  _4
REMARK    3  A    between atoms: _3  and  _6
REMARK    4  A    between atoms: _6  and  _7
REMARK    5  A    between atoms: _7  and  _8
REMARK    6  A    between atoms: _8  and  _9
REMARK    7  A    between atoms: _18  and  _20
REMARK    8  A    between atoms: _20  and  _21
REMARK    9  A    between atoms: _20  and  _23
REMARK   10  A    between atoms: _23  and  _24
REMARK   11  A    between atoms: _27  and  _29
REMARK   12  A    between atoms: _29  and  _30
REMARK   13  A    between atoms: _29  and  _32
REMARK   14  A    between atoms: _32  and  _33
REMARK   15  A    between atoms: _36  and  _38
REMARK   16  A    between atoms: _38  and  _39
REMARK   17  A    between atoms: _38  and  _41
REMARK   18  A    between atoms: _41  and  _42
REMARK   19  A    between atoms: _45  and  _47
REMARK   20  A    between atoms: _47  and  _48
REMARK   21  A    between atoms: _47  and  _50
REMARK   22  A    between atoms: _50  and  _51
REMARK   23  A    between atoms: _54  and  _56
REMARK   24  A    between atoms: _56  and  _57
REMARK   25  A    between atoms: _59  and  _61
REMARK   26  A    between atoms: _61  and  _62
REMARK   27  A    between atoms: _65  and  _67
REMARK   28  A    between atoms: _67  and  _68
REMARK   29  A    between atoms: _67  and  _70
REMARK   30  A    between atoms: _70  and  _71
REMARK   31  A    between atoms: _74  and  _76
REMARK   32  A    between atoms: _76  and  _77
REMARK   33  A    between atoms: _76  and  _79
REMARK   34  A    between atoms: _79  and  _80
REMARK   35  A    between atoms: _83  and  _85
REMARK   36  A    between atoms: _85  and  _86
REMARK   37  A    between atoms: _85  and  _88
REMARK   38  A    between atoms: _88  and  _89
REMARK   39  A    between atoms: _92  and  _94
REMARK   40  A    between atoms: _94  and  _95
REMARK   41  A    between atoms: _94  and  _97
REMARK   42  A    between atoms: _100  and  _102
REMARK   43  A    between atoms: _102  and  _103
REMARK   44  A    between atoms: _102  and  _105
REMARK   45  A    between atoms: _105  and  _106
REMARK   46  A    between atoms: _109  and  _111
REMARK   47  A    between atoms: _111  and  _112
REMARK   48  A    between atoms: _111  and  _114
REMARK   49  A    between atoms: _114  and  _115
REMARK   50  A    between atoms: _115  and  _116
REMARK   51  A    between atoms: _116  and  _117
REMARK   52  A    between atoms: _117  and  _118
REMARK   53  A    between atoms: _122  and  _124
REMARK   54  A    between atoms: _124  and  _125
REMARK   55  A    between atoms: _124  and  _127
REMARK   56  A    between atoms: _127  and  _128
REMARK   57  A    between atoms: _128  and  _129
REMARK   58  A    between atoms: _131  and  _133
REMARK   59  A    between atoms: _133  and  _134
REMARK   60  A    between atoms: _133  and  _136
REMARK   61  A    between atoms: _136  and  _137
REMARK   62  A    between atoms: _140  and  _142
REMARK   63  A    between atoms: _142  and  _143
REMARK   64  A    between atoms: _145  and  _147
REMARK   65  A    between atoms: _147  and  _148
REMARK   66  A    between atoms: _150  and  _152
REMARK   67  A    between atoms: _152  and  _153
REMARK   68  A    between atoms: _152  and  _155
REMARK   69  A    between atoms: _155  and  _156
REMARK   70  A    between atoms: _159  and  _161
REMARK   71  A    between atoms: _161  and  _162
REMARK   72  A    between atoms: _164  and  _166
REMARK   73  A    between atoms: _166  and  _167
REMARK   74  A    between atoms: _169  and  _171
REMARK   75  A    between atoms: _171  and  _172
REMARK   76  A    between atoms: _171  and  _174
REMARK   77  A    between atoms: _174  and  _175
REMARK   78  A    between atoms: _181  and  _183
REMARK   79  A    between atoms: _183  and  _184
REMARK   80  A    between atoms: _183  and  _186
REMARK   81  A    between atoms: _186  and  _187
REMARK   82  A    between atoms: _190  and  _192
REMARK   83  A    between atoms: _192  and  _193
REMARK   84  A    between atoms: _192  and  _195
REMARK   85  A    between atoms: _195  and  _196
REMARK   86  A    between atoms: _200  and  _201
REMARK   87  A    between atoms: _206  and  _208
REMARK   88  A    between atoms: _208  and  _209
REMARK   89  A    between atoms: _208  and  _211
REMARK   90  A    between atoms: _211  and  _212
REMARK   91  A    between atoms: _216  and  _217
REMARK   92  A    between atoms: _222  and  _224
REMARK   93  A    between atoms: _224  and  _225
REMARK   94  A    between atoms: _224  and  _227
REMARK   95  A    between atoms: _227  and  _228
REMARK   96  A    between atoms: _234  and  _236
REMARK   97  A    between atoms: _236  and  _237
REMARK   98  A    between atoms: _236  and  _239
REMARK   99  A    between atoms: _239  and  _240
REMARK  100  A    between atoms: _245  and  _247
REMARK  101  A    between atoms: _247  and  _248
REMARK  102  A    between atoms: _247  and  _250
REMARK  103  A    between atoms: _253  and  _255
REMARK  104  A    between atoms: _255  and  _256
REMARK  105  A    between atoms: _255  and  _258
REMARK  106  A    between atoms: _258  and  _259
REMARK  107  A    between atoms: _262  and  _264
REMARK  108  A    between atoms: _264  and  _265
REMARK  109  A    between atoms: _267  and  _269
REMARK  110  A    between atoms: _269  and  _270
REMARK  111  A    between atoms: _269  and  _272
REMARK  112  A    between atoms: _272  and  _273
REMARK  113  A    between atoms: _273  and  _274
REMARK  114  A    between atoms: _274  and  _275
REMARK  115  A    between atoms: _284  and  _286
REMARK  116  A    between atoms: _286  and  _287
REMARK  117  A    between atoms: _286  and  _289
REMARK  118  A    between atoms: _289  and  _290
REMARK  119  A    between atoms: _295  and  _297
REMARK  120  A    between atoms: _297  and  _298
REMARK  121  A    between atoms: _297  and  _300
REMARK  122  A    between atoms: _300  and  _301
REMARK  123  A    between atoms: _301  and  _302
REMARK  124  A    between atoms: _302  and  _303
REMARK  125  A    between atoms: _312  and  _314
REMARK  126  A    between atoms: _314  and  _315
REMARK  127  A    between atoms: _314  and  _317
REMARK  128  A    between atoms: _317  and  _318
REMARK  129  A    between atoms: _321  and  _323
REMARK  130  A    between atoms: _323  and  _324
REMARK  131  A    between atoms: _323  and  _326
REMARK  132  A    between atoms: _326  and  _327
REMARK  133  A    between atoms: _330  and  _332
REMARK  134  A    between atoms: _332  and  _333
REMARK  135  A    between atoms: _332  and  _335
REMARK  136  A    between atoms: _335  and  _336
REMARK  137  A    between atoms: _339  and  _341
REMARK  138  A    between atoms: _341  and  _342
REMARK  139  A    between atoms: _341  and  _344
REMARK  140  A    between atoms: _344  and  _345
REMARK  141  A    between atoms: _348  and  _350
REMARK  142  A    between atoms: _350  and  _351
REMARK  143  A    between atoms: _353  and  _355
REMARK  144  A    between atoms: _355  and  _356
REMARK  145  A    between atoms: _359  and  _361
REMARK  146  A    between atoms: _361  and  _362
REMARK  147  A    between atoms: _361  and  _364
REMARK  148  A    between atoms: _364  and  _365
REMARK  149  A    between atoms: _368  and  _370
REMARK  150  A    between atoms: _370  and  _371
REMARK  151  A    between atoms: _370  and  _373
REMARK  152  A    between atoms: _373  and  _374
REMARK  153  A    between atoms: _377  and  _379
REMARK  154  A    between atoms: _379  and  _380
REMARK  155  A    between atoms: _379  and  _382
REMARK  156  A    between atoms: _382  and  _383
REMARK  157  A    between atoms: _386  and  _388
REMARK  158  A    between atoms: _388  and  _389
REMARK  159  A    between atoms: _388  and  _391
REMARK  160  A    between atoms: _394  and  _396
REMARK  161  A    between atoms: _396  and  _397
REMARK  162  A    between atoms: _396  and  _399
REMARK  163  A    between atoms: _399  and  _400
REMARK  164  A    between atoms: _403  and  _405
REMARK  165  A    between atoms: _405  and  _406
REMARK  166  A    between atoms: _405  and  _408
REMARK  167  A    between atoms: _408  and  _409
REMARK  168  A    between atoms: _409  and  _410
REMARK  169  A    between atoms: _410  and  _411
REMARK  170  A    between atoms: _411  and  _412
REMARK  171  A    between atoms: _416  and  _418
REMARK  172  A    between atoms: _418  and  _419
REMARK  173  A    between atoms: _418  and  _421
REMARK  174  A    between atoms: _421  and  _422
REMARK  175  A    between atoms: _422  and  _423
REMARK  176  A    between atoms: _425  and  _427
REMARK  177  A    between atoms: _427  and  _428
REMARK  178  A    between atoms: _427  and  _430
REMARK  179  A    between atoms: _430  and  _431
REMARK  180  A    between atoms: _434  and  _436
REMARK  181  A    between atoms: _436  and  _437
REMARK  182  A    between atoms: _439  and  _441
REMARK  183  A    between atoms: _441  and  _442
REMARK  184  A    between atoms: _444  and  _446
REMARK  185  A    between atoms: _446  and  _447
REMARK  186  A    between atoms: _446  and  _449
REMARK  187  A    between atoms: _449  and  _450
REMARK  188  A    between atoms: _453  and  _455
REMARK  189  A    between atoms: _455  and  _456
REMARK  190  A    between atoms: _458  and  _460
REMARK  191  A    between atoms: _460  and  _461
REMARK  192  A    between atoms: _463  and  _465
REMARK  193  A    between atoms: _465  and  _466
REMARK  194  A    between atoms: _465  and  _468
REMARK  195  A    between atoms: _468  and  _469
REMARK  196  A    between atoms: _475  and  _477
REMARK  197  A    between atoms: _477  and  _478
REMARK  198  A    between atoms: _477  and  _480
REMARK  199  A    between atoms: _480  and  _481
REMARK  200  A    between atoms: _484  and  _486
REMARK  201  A    between atoms: _486  and  _487
REMARK  202  A    between atoms: _486  and  _489
REMARK  203  A    between atoms: _489  and  _490
REMARK  204  A    between atoms: _494  and  _495
REMARK  205  A    between atoms: _500  and  _502
REMARK  206  A    between atoms: _502  and  _503
REMARK  207  A    between atoms: _502  and  _505
REMARK  208  A    between atoms: _505  and  _506
REMARK  209  A    between atoms: _510  and  _511
REMARK  210  A    between atoms: _516  and  _518
REMARK  211  A    between atoms: _518  and  _519
REMARK  212  A    between atoms: _518  and  _521
REMARK  213  A    between atoms: _521  and  _522
REMARK  214  A    between atoms: _528  and  _530
REMARK  215  A    between atoms: _530  and  _531
REMARK  216  A    between atoms: _530  and  _533
REMARK  217  A    between atoms: _533  and  _534
REMARK  218  A    between atoms: _539  and  _541
REMARK  219  A    between atoms: _541  and  _542
REMARK  220  A    between atoms: _541  and  _544
REMARK  221  A    between atoms: _547  and  _549
REMARK  222  A    between atoms: _549  and  _550
REMARK  223  A    between atoms: _549  and  _552
REMARK  224  A    between atoms: _552  and  _553
REMARK  225  A    between atoms: _556  and  _558
REMARK  226  A    between atoms: _558  and  _559
REMARK  227  A    between atoms: _561  and  _563
REMARK  228  A    between atoms: _563  and  _564
REMARK  229  A    between atoms: _563  and  _566
REMARK  230  A    between atoms: _566  and  _567
REMARK  231  A    between atoms: _567  and  _568
REMARK  232  A    between atoms: _568  and  _569
REMARK  233  A    between atoms: _578  and  _580
REMARK  234  A    between atoms: _580  and  _581
REMARK  235  A    between atoms: _580  and  _583
REMARK  236  A    between atoms: _583  and  _584
REMARK                            x       y       z     vdW  Elec       q    Type
REMARK                         _______ _______ _______ _____ _____    ______ ____
ROOT
ATOM      1  C   GLY A   5      -4.713  13.337  26.747  0.00  0.00    +0.243 C 
ATOM      2  N   ILE A   6      -5.321  13.711  27.868  0.00  0.00    -0.297 N 
ATOM      3  H   ILE A   6      -6.205  14.258  27.843  0.00  0.00    +0.150 HD
ATOM      4  O   GLY A   5      -3.598  12.833  26.743  0.00  0.00    -0.273 OA
ENDROOT
BRANCH   2   5
ATOM      5  CA  ILE A   6      -4.705  13.328  29.140  0.00  0.00    +0.149 C 
BRANCH   5   6
ATOM      6  C   ILE A   6      -4.867  11.851  29.274  0.00  0.00    +0.241 C 
ATOM      7  N   GLY A   7      -3.774  11.191  29.580  0.00  0.00    -0.295 N 
ATOM      8  H   GLY A   7      -2.871  11.671  29.767  0.00  0.00    +0.150 HD
ATOM      9  O   ILE A   6      -5.952  11.329  29.098  0.00  0.00    -0.273 OA
BRANCH   7  10
ATOM     10  CA  GLY A   7      -3.910   9.739  29.640  0.00  0.00    +0.176 C 
BRANCH  10  11
ATOM     11  C   GLY A   7      -3.267   9.045  28.465  0.00  0.00    +0.243 C 
ATOM     12  O   GLY A   7      -2.808   7.926  28.573  0.00  0.00    -0.273 OA
ATOM     13  N   GLY A   8      -3.210   9.723  27.332  0.00  0.00    -0.295 N 
ATOM     14  H   GLY A   8      -3.618  10.675  27.236  0.00  0.00    +0.150 HD
BRANCH  13  15
ATOM     15  CA  GLY A   8      -2.543   9.055  26.232  0.00  0.00    +0.176 C 
BRANCH  15  16
ATOM     16  C   GLY A   8      -3.089   9.489  24.910  0.00  0.00    +0.243 C 
ATOM     17  O   GLY A   8      -3.652  10.559  24.766  0.00  0.00    -0.273 OA
ATOM     18  N   PHE A   9      -2.885   8.634  23.938  0.00  0.00    -0.297 N 
ATOM     19  H   PHE A   9      -2.445   7.712  24.133  0.00  0.00    +0.150 HD
BRANCH  18  20
ATOM     20  CA  PHE A   9      -3.277   8.984  22.593  0.00  0.00    +0.153 C 
BRANCH  20  21
ATOM     21  C   PHE A   9      -4.218   7.945  22.126  0.00  0.00    +0.241 C 
ATOM     22  O   PHE A   9      -4.122   6.825  22.571  0.00  0.00    -0.273 OA
ATOM     23  N   ILE A  10      -5.119   8.295  21.253  0.00  0.00    -0.298 N 
ATOM     24  H   ILE A  10      -5.207   9.287  20.952  0.00  0.00    +0.150 HD
BRANCH  23  25
ATOM     25  CA  ILE A  10      -6.000   7.276  20.707  0.00  0.00    +0.137 C 
BRANCH  25  26
ATOM     26  C   ILE A  10      -5.946   7.434  19.214  0.00  0.00    +0.227 C 
ATOM     27  O   ILE A  10      -5.618   8.519  18.765  0.00  0.00    -0.286 OA
ENDBRANCH  25  26
BRANCH  25  28
ATOM     28  CB  ILE A  10      -7.454   7.471  21.230  0.00  0.00    +0.026 C 
ATOM     29  CG2 ILE A  10      -7.595   7.103  22.713  0.00  0.00    +0.002 C 
BRANCH  28  30
ATOM     30  CG1 ILE A  10      -8.103   8.842  21.002  0.00  0.00    +0.002 C 
ATOM     31  CD1 ILE A  10      -9.551   8.832  21.490  0.00  0.00    +0.000 C 
ENDBRANCH  28  30
ENDBRANCH  25  28
ENDBRANCH  23  25
ENDBRANCH  20  21
BRANCH  20  32
ATOM     32  CB  PHE A   9      -2.047   9.044  21.686  0.00  0.00    +0.055 C 
BRANCH  32  33
ATOM     33  CG  PHE A   9      -1.144   7.838  21.820  0.00  0.00    -0.020 A 
ATOM     34  CD2 PHE A   9      -0.140   7.802  22.825  0.00  0.00    -0.004 A 
ATOM     35  CE2 PHE A   9       0.739   6.695  22.911  0.00  0.00    -0.000 A 
ATOM     36  CZ  PHE A   9       0.611   5.623  22.000  0.00  0.00    -0.000 A 
ATOM     37  CE1 PHE A   9      -0.394   5.653  21.002  0.00  0.00    -0.000 A 
ATOM     38  CD1 PHE A   9      -1.274   6.761  20.910  0.00  0.00    -0.004 A 
ENDBRANCH  32  33
ENDBRANCH  20  32
ENDBRANCH  18  20
ENDBRANCH  15  16
ENDBRANCH  13  15
ENDBRANCH  10  11
ENDBRANCH   7  10
ENDBRANCH   5   6
BRANCH   5  39
ATOM     39  CB  ILE A   6      -5.411  14.074  30.286  0.00  0.00    +0.027 C 
ATOM     40  CG2 ILE A   6      -5.467  13.338  31.620  0.00  0.00    +0.002 C 
BRANCH  39  41
ATOM     41  CG1 ILE A   6      -4.661  15.378  30.544  0.00  0.00    +0.002 C 
ATOM     42  CD1 ILE A   6      -5.284  16.255  31.633  0.00  0.00    +0.000 C 
ENDBRANCH  39  41
ENDBRANCH   5  39
ENDBRANCH   2   5
BRANCH   1  43
ATOM     43  CA  GLY A   5      -5.491  13.589  25.488  0.00  0.00    +0.176 C 
BRANCH  43  45
ATOM     44  C   GLY A   4      -4.635  13.669  23.214  0.00  0.00    +0.243 C 
ATOM     45  N   GLY A   5      -4.727  13.052  24.382  0.00  0.00    -0.295 N 
ATOM     46  H   GLY A   5      -4.231  12.147  24.510  0.00  0.00    +0.150 HD
ATOM     47  O   GLY A   4      -5.225  14.701  22.919  0.00  0.00    -0.273 OA
BRANCH  44  48
ATOM     48  CA  GLY A   4      -3.696  12.972  22.247  0.00  0.00    +0.176 C 
BRANCH  48  50
ATOM     49  C   ILE A   3      -4.681  12.057  20.310  0.00  0.00    +0.241 C 
ATOM     50  N   GLY A   4      -4.123  13.100  20.866  0.00  0.00    -0.295 N 
ATOM     51  H   GLY A   4      -3.990  13.987  20.339  0.00  0.00    +0.150 HD
ATOM     52  O   ILE A   3      -4.743  10.964  20.840  0.00  0.00    -0.273 OA
BRANCH  49  53
ATOM     53  CA  ILE A   3      -5.260  12.279  18.945  0.00  0.00    +0.149 C 
BRANCH  53  55
ATOM     54  C   MET A   2      -4.357  11.140  17.037  0.00  0.00    +0.241 C 
ATOM     55  N   ILE A   3      -4.973  11.078  18.183  0.00  0.00    -0.297 N 
ATOM     56  H   ILE A   3      -5.264  10.153  18.558  0.00  0.00    +0.150 HD
ATOM     57  O   MET A   2      -3.865  12.155  16.579  0.00  0.00    -0.273 OA
BRANCH  54  58
ATOM     58  CA  MET A   2      -4.352   9.880  16.241  0.00  0.00    +0.149 C 
BRANCH  58  60
ATOM     59  C   LYS A   1      -5.479   9.586  14.088  0.00  0.00    +0.238 C 
ATOM     60  N   MET A   2      -4.731  10.308  14.900  0.00  0.00    -0.297 N 
ATOM     61  H   MET A   2      -4.393  11.233  14.565  0.00  0.00    +0.150 HD
ATOM     62  O   LYS A   1      -5.983   8.516  14.389  0.00  0.00    -0.274 OA
BRANCH  59  63
ATOM     63  CA  LYS A   1      -5.686  10.166  12.729  0.00  0.00    +0.145 C 
BRANCH  63  64
ATOM     64  N   LYS A   1      -6.377   9.076  12.088  0.00  0.00    -0.238 NA
ATOM     65  H   LYS A   1      -6.955   8.441  12.674  0.00  0.00    +0.142 HD
ENDBRANCH  63  64
BRANCH  63  66
ATOM     66  CB  LYS A   1      -6.594  11.383  12.839  0.00  0.00    +0.026 C 
BRANCH  66  67
ATOM     67  CG  LYS A   1      -5.837  12.717  12.792  0.00  0.00    -0.000 C 
BRANCH  67  68
ATOM     68  CD  LYS A   1      -6.572  13.903  13.453  0.00  0.00    -0.024 C 
BRANCH  68  69
ATOM     69  CE  LYS A   1      -5.851  15.246  13.200  0.00  0.00    -0.086 C 
BRANCH  69  70
ATOM     70  NZ  LYS A   1      -6.205  16.286  14.189  0.00  0.00    +0.380 N 
ATOM     71  HZ1 LYS A   1      -5.943  15.960  15.141  0.00  0.00    -0.089 HD
ATOM     72  HZ2 LYS A   1      -7.229  16.464  14.151  0.00  0.00    -0.089 HD
ATOM     73  HZ3 LYS A   1      -5.691  17.163  13.968  0.00  0.00    -0.089 HD
ENDBRANCH  69  70
ENDBRANCH  68  69
ENDBRANCH  67  68
ENDBRANCH  66  67
ENDBRANCH  63  66
ENDBRANCH  59  63
ENDBRANCH  58  60
BRANCH  58  74
ATOM     74  CB  MET A   2      -2.945   9.335  16.112  0.00  0.00    +0.041 C 
BRANCH  74  75
ATOM     75  CG  MET A   2      -2.224   8.937  17.378  0.00  0.00    +0.060 C 
BRANCH  75  76
ATOM     76  SD  MET A   2      -1.208   7.529  16.916  0.00  0.00    -0.139 S 
ATOM     77  CE  MET A   2      -2.456   6.257  17.178  0.00  0.00    +0.069 C 
ENDBRANCH  75  76
ENDBRANCH  74  75
ENDBRANCH  58  74
ENDBRANCH  54  58
ENDBRANCH  53  55
BRANCH  53  78
ATOM     78  CB  ILE A   3      -6.805  12.362  18.947  0.00  0.00    +0.027 C 
ATOM     79  CG2 ILE A   3      -7.520  12.939  20.177  0.00  0.00    +0.002 C 
BRANCH  78  80
ATOM     80  CG1 ILE A   3      -7.294  13.122  17.727  0.00  0.00    +0.002 C 
ATOM     81  CD1 ILE A   3      -6.766  14.557  17.652  0.00  0.00    +0.000 C 
ENDBRANCH  78  80
ENDBRANCH  53  78
ENDBRANCH  49  53
ENDBRANCH  48  50
ENDBRANCH  44  48
ENDBRANCH  43  45
ENDBRANCH   1  43
TORSDOF 36
REMARK  Name = ../refined-set-2016/1bwa/1bwa_pocket.pdb
REMARK  236 active torsions:
REMARK  status: ('A' for Active; 'I' for Inactive)
REMARK    1  A    between atoms: _1  and  _3
REMARK    2  A    between atoms: _3  and  _4
REMARK    3  A    between atoms: _3  and  _6
REMARK    4  A    between atoms: _6  and  _7
REMARK    5  A    between atoms: _7  and  _8
REMARK    6  A    between atoms: _8  and  _9
REMARK    7  A    between atoms: _18  and  _20
REMARK    8  A    between atoms: _20  and  _21
REMARK    9  A    between atoms: _20  and  _23
REMARK   10  A    between atoms: _23  and  _24
REMARK   11  A    between atoms: _27  and  _29
REMARK   12  A    between atoms: _29  and  _30
REMARK   13  A    between atoms: _29  and  _32
REMARK   14  A    between atoms: _32  and  _33
REMARK   15  A    between atoms: _36  and  _38
REMARK   16  A    between atoms: _38  and  _39
REMARK   17  A    between atoms: _38  and  _41
REMARK   18  A    between atoms: _41  and  _42
REMARK   19  A    between atoms: _45  and  _47
REMARK   20  A    between atoms: _47  and  _48
REMARK   21  A    between atoms: _47  and  _50
REMARK   22  A    between atoms: _50  and  _51
REMARK   23  A    between atoms: _54  and  _56
REMARK   24  A    between atoms: _56  and  _57
REMARK   25  A    between atoms: _59  and  _61
REMARK   26  A    between atoms: _61  and  _62
REMARK   27  A    between atoms: _65  and  _67
REMARK   28  A    between atoms: _67  and  _68
REMARK   29  A    between atoms: _67  and  _70
REMARK   30  A    between atoms: _70  and  _71
REMARK   31  A    between atoms: _74  and  _76
REMARK   32  A    between atoms: _76  and  _77
REMARK   33  A    between atoms: _76  and  _79
REMARK   34  A    between atoms: _79  and  _80
REMARK   35  A    between atoms: _83  and  _85
REMARK   36  A    between atoms: _85  and  _86
REMARK   37  A    between atoms: _85  and  _88
REMARK   38  A    between atoms: _88  and  _89
REMARK   39  A    between atoms: _92  and  _94
REMARK   40  A    between atoms: _94  and  _95
REMARK   41  A    between atoms: _94  and  _97
REMARK   42  A    between atoms: _100  and  _102
REMARK   43  A    between atoms: _102  and  _103
REMARK   44  A    between atoms: _102  and  _105
REMARK   45  A    between atoms: _105  and  _106
REMARK   46  A    between atoms: _109  and  _111
REMARK   47  A    between atoms: _111  and  _112
REMARK   48  A    between atoms: _111  and  _114
REMARK   49  A    between atoms: _114  and  _115
REMARK   50  A    between atoms: _115  and  _116
REMARK   51  A    between atoms: _116  and  _117
REMARK   52  A    between atoms: _117  and  _118
REMARK   53  A    between atoms: _122  and  _124
REMARK   54  A    between atoms: _124  and  _125
REMARK   55  A    between atoms: _124  and  _127
REMARK   56  A    between atoms: _127  and  _128
REMARK   57  A    between atoms: _128  and  _129
REMARK   58  A    between atoms: _131  and  _133
REMARK   59  A    between atoms: _133  and  _134
REMARK   60  A    between atoms: _133  and  _136
REMARK   61  A    between atoms: _136  and  _137
REMARK   62  A    between atoms: _140  and  _142
REMARK   63  A    between atoms: _142  and  _143
REMARK   64  A    between atoms: _145  and  _147
REMARK   65  A    between atoms: _147  and  _148
REMARK   66  A    between atoms: _150  and  _152
REMARK   67  A    between atoms: _152  and  _153
REMARK   68  A    between atoms: _152  and  _155
REMARK   69  A    between atoms: _155  and  _156
REMARK   70  A    between atoms: _159  and  _161
REMARK   71  A    between atoms: _161  and  _162
REMARK   72  A    between atoms: _164  and  _166
REMARK   73  A    between atoms: _166  and  _167
REMARK   74  A    between atoms: _169  and  _171
REMARK   75  A    between atoms: _171  and  _172
REMARK   76  A    between atoms: _171  and  _174
REMARK   77  A    between atoms: _174  and  _175
REMARK   78  A    between atoms: _181  and  _183
REMARK   79  A    between atoms: _183  and  _184
REMARK   80  A    between atoms: _183  and  _186
REMARK   81  A    between atoms: _186  and  _187
REMARK   82  A    between atoms: _190  and  _192
REMARK   83  A    between atoms: _192  and  _193
REMARK   84  A    between atoms: _192  and  _195
REMARK   85  A    between atoms: _195  and  _196
REMARK   86  A    between atoms: _200  and  _201
REMARK   87  A    between atoms: _206  and  _208
REMARK   88  A    between atoms: _208  and  _209
REMARK   89  A    between atoms: _208  and  _211
REMARK   90  A    between atoms: _211  and  _212
REMARK   91  A    between atoms: _216  and  _217
REMARK   92  A    between atoms: _222  and  _224
REMARK   93  A    between atoms: _224  and  _225
REMARK   94  A    between atoms: _224  and  _227
REMARK   95  A    between atoms: _227  and  _228
REMARK   96  A    between atoms: _234  and  _236
REMARK   97  A    between atoms: _236  and  _237
REMARK   98  A    between atoms: _236  and  _239
REMARK   99  A    between atoms: _239  and  _240
REMARK  100  A    between atoms: _245  and  _247
REMARK  101  A    between atoms: _247  and  _248
REMARK  102  A    between atoms: _247  and  _250
REMARK  103  A    between atoms: _253  and  _255
REMARK  104  A    between atoms: _255  and  _256
REMARK  105  A    between atoms: _255  and  _258
REMARK  106  A    between atoms: _258  and  _259
REMARK  107  A    between atoms: _262  and  _264
REMARK  108  A    between atoms: _264  and  _265
REMARK  109  A    between atoms: _267  and  _269
REMARK  110  A    between atoms: _269  and  _270
REMARK  111  A    between atoms: _269  and  _272
REMARK  112  A    between atoms: _272  and  _273
REMARK  113  A    between atoms: _273  and  _274
REMARK  114  A    between atoms: _274  and  _275
REMARK  115  A    between atoms: _284  and  _286
REMARK  116  A    between atoms: _286  and  _287
REMARK  117  A    between atoms: _286  and  _289
REMARK  118  A    between atoms: _289  and  _290
REMARK  119  A    between atoms: _295  and  _297
REMARK  120  A    between atoms: _297  and  _298
REMARK  121  A    between atoms: _297  and  _300
REMARK  122  A    between atoms: _300  and  _301
REMARK  123  A    between atoms: _301  and  _302
REMARK  124  A    between atoms: _302  and  _303
REMARK  125  A    between atoms: _312  and  _314
REMARK  126  A    between atoms: _314  and  _315
REMARK  127  A    between atoms: _314  and  _317
REMARK  128  A    between atoms: _317  and  _318
REMARK  129  A    between atoms: _321  and  _323
REMARK  130  A    between atoms: _323  and  _324
REMARK  131  A    between atoms: _323  and  _326
REMARK  132  A    between atoms: _326  and  _327
REMARK  133  A    between atoms: _330  and  _332
REMARK  134  A    between atoms: _332  and  _333
REMARK  135  A    between atoms: _332  and  _335
REMARK  136  A    between atoms: _335  and  _336
REMARK  137  A    between atoms: _339  and  _341
REMARK  138  A    between atoms: _341  and  _342
REMARK  139  A    between atoms: _341  and  _344
REMARK  140  A    between atoms: _344  and  _345
REMARK  141  A    between atoms: _348  and  _350
REMARK  142  A    between atoms: _350  and  _351
REMARK  143  A    between atoms: _353  and  _355
REMARK  144  A    between atoms: _355  and  _356
REMARK  145  A    between atoms: _359  and  _361
REMARK  146  A    between atoms: _361  and  _362
REMARK  147  A    between atoms: _361  and  _364
REMARK  148  A    between atoms: _364  and  _365
REMARK  149  A    between atoms: _368  and  _370
REMARK  150  A    between atoms: _370  and  _371
REMARK  151  A    between atoms: _370  and  _373
REMARK  152  A    between atoms: _373  and  _374
REMARK  153  A    between atoms: _377  and  _379
REMARK  154  A    between atoms: _379  and  _380
REMARK  155  A    between atoms: _379  and  _382
REMARK  156  A    between atoms: _382  and  _383
REMARK  157  A    between atoms: _386  and  _388
REMARK  158  A    between atoms: _388  and  _389
REMARK  159  A    between atoms: _388  and  _391
REMARK  160  A    between atoms: _394  and  _396
REMARK  161  A    between atoms: _396  and  _397
REMARK  162  A    between atoms: _396  and  _399
REMARK  163  A    between atoms: _399  and  _400
REMARK  164  A    between atoms: _403  and  _405
REMARK  165  A    between atoms: _405  and  _406
REMARK  166  A    between atoms: _405  and  _408
REMARK  167  A    between atoms: _408  and  _409
REMARK  168  A    between atoms: _409  and  _410
REMARK  169  A    between atoms: _410  and  _411
REMARK  170  A    between atoms: _411  and  _412
REMARK  171  A    between atoms: _416  and  _418
REMARK  172  A    between atoms: _418  and  _419
REMARK  173  A    between atoms: _418  and  _421
REMARK  174  A    between atoms: _421  and  _422
REMARK  175  A    between atoms: _422  and  _423
REMARK  176  A    between atoms: _425  and  _427
REMARK  177  A    between atoms: _427  and  _428
REMARK  178  A    between atoms: _427  and  _430
REMARK  179  A    between atoms: _430  and  _431
REMARK  180  A    between atoms: _434  and  _436
REMARK  181  A    between atoms: _436  and  _437
REMARK  182  A    between atoms: _439  and  _441
REMARK  183  A    between atoms: _441  and  _442
REMARK  184  A    between atoms: _444  and  _446
REMARK  185  A    between atoms: _446  and  _447
REMARK  186  A    between atoms: _446  and  _449
REMARK  187  A    between atoms: _449  and  _450
REMARK  188  A    between atoms: _453  and  _455
REMARK  189  A    between atoms: _455  and  _456
REMARK  190  A    between atoms: _458  and  _460
REMARK  191  A    between atoms: _460  and  _461
REMARK  192  A    between atoms: _463  and  _465
REMARK  193  A    between atoms: _465  and  _466
REMARK  194  A    between atoms: _465  and  _468
REMARK  195  A    between atoms: _468  and  _469
REMARK  196  A    between atoms: _475  and  _477
REMARK  197  A    between atoms: _477  and  _478
REMARK  198  A    between atoms: _477  and  _480
REMARK  199  A    between atoms: _480  and  _481
REMARK  200  A    between atoms: _484  and  _486
REMARK  201  A    between atoms: _486  and  _487
REMARK  202  A    between atoms: _486  and  _489
REMARK  203  A    between atoms: _489  and  _490
REMARK  204  A    between atoms: _494  and  _495
REMARK  205  A    between atoms: _500  and  _502
REMARK  206  A    between atoms: _502  and  _503
REMARK  207  A    between atoms: _502  and  _505
REMARK  208  A    between atoms: _505  and  _506
REMARK  209  A    between atoms: _510  and  _511
REMARK  210  A    between atoms: _516  and  _518
REMARK  211  A    between atoms: _518  and  _519
REMARK  212  A    between atoms: _518  and  _521
REMARK  213  A    between atoms: _521  and  _522
REMARK  214  A    between atoms: _528  and  _530
REMARK  215  A    between atoms: _530  and  _531
REMARK  216  A    between atoms: _530  and  _533
REMARK  217  A    between atoms: _533  and  _534
REMARK  218  A    between atoms: _539  and  _541
REMARK  219  A    between atoms: _541  and  _542
REMARK  220  A    between atoms: _541  and  _544
REMARK  221  A    between atoms: _547  and  _549
REMARK  222  A    between atoms: _549  and  _550
REMARK  223  A    between atoms: _549  and  _552
REMARK  224  A    between atoms: _552  and  _553
REMARK  225  A    between atoms: _556  and  _558
REMARK  226  A    between atoms: _558  and  _559
REMARK  227  A    between atoms: _561  and  _563
REMARK  228  A    between atoms: _563  and  _564
REMARK  229  A    between atoms: _563  and  _566
REMARK  230  A    between atoms: _566  and  _567
REMARK  231  A    between atoms: _567  and  _568
REMARK  232  A    between atoms: _568  and  _569
REMARK  233  A    between atoms: _578  and  _580
REMARK  234  A    between atoms: _580  and  _581
REMARK  235  A    between atoms: _580  and  _583
REMARK  236  A    between atoms: _583  and  _584
REMARK                            x       y       z     vdW  Elec       q    Type
REMARK                         _______ _______ _______ _____ _____    ______ ____
ROOT
ATOM      1  CA  LEU A   1     -13.350  12.560  14.756  0.00  0.00    +0.133 C 
ENDROOT
BRANCH   1   2
ATOM      2  N   LEU A   1     -14.163  13.757  14.575  0.00  0.00    -0.239 NA
ATOM      3  H   LEU A   1     -14.369  14.377  15.384  0.00  0.00    +0.142 HD
ENDBRANCH   1   2
BRANCH   1   4
ATOM      4  C   LEU A   1     -14.174  11.556  15.508  0.00  0.00    +0.224 C 
ATOM      5  O   LEU A   1     -14.858  11.877  16.471  0.00  0.00    -0.287 OA
ENDBRANCH   1   4
BRANCH   1   6
ATOM      6  CB  LEU A   1     -12.096  12.883  15.578  0.00  0.00    +0.025 C 
BRANCH   6   7
ATOM      7  CG  LEU A   1     -11.244  13.996  14.980  0.00  0.00    +0.002 C 
ATOM      8  CD2 LEU A   1     -10.102  14.339  15.923  0.00  0.00    +0.000 C 
ATOM      9  CD1 LEU A   1     -10.721  13.569  13.625  0.00  0.00    +0.000 C 
ENDBRANCH   6   7
ENDBRANCH   1   6
TORSDOF 4
REMARK  Name = ../refined-set-2016/1bwa/1bwa_pocket.pdb
REMARK  236 active torsions:
REMARK  status: ('A' for Active; 'I' for Inactive)
REMARK    1  A    between atoms: _1  and  _3
REMARK    2  A    between atoms: _3  and  _4
REMARK    3  A    between atoms: _3  and  _6
REMARK    4  A    between atoms: _6  and  _7
REMARK    5  A    between atoms: _7  and  _8
REMARK    6  A    between atoms: _8  and  _9
REMARK    7  A    between atoms: _18  and  _20
REMARK    8  A    between atoms: _20  and  _21
REMARK    9  A    between atoms: _20  and  _23
REMARK   10  A    between atoms: _23  and  _24
REMARK   11  A    between atoms: _27  and  _29
REMARK   12  A    between atoms: _29  and  _30
REMARK   13  A    between atoms: _29  and  _32
REMARK   14  A    between atoms: _32  and  _33
REMARK   15  A    between atoms: _36  and  _38
REMARK   16  A    between atoms: _38  and  _39
REMARK   17  A    between atoms: _38  and  _41
REMARK   18  A    between atoms: _41  and  _42
REMARK   19  A    between atoms: _45  and  _47
REMARK   20  A    between atoms: _47  and  _48
REMARK   21  A    between atoms: _47  and  _50
REMARK   22  A    between atoms: _50  and  _51
REMARK   23  A    between atoms: _54  and  _56
REMARK   24  A    between atoms: _56  and  _57
REMARK   25  A    between atoms: _59  and  _61
REMARK   26  A    between atoms: _61  and  _62
REMARK   27  A    between atoms: _65  and  _67
REMARK   28  A    between atoms: _67  and  _68
REMARK   29  A    between atoms: _67  and  _70
REMARK   30  A    between atoms: _70  and  _71
REMARK   31  A    between atoms: _74  and  _76
REMARK   32  A    between atoms: _76  and  _77
REMARK   33  A    between atoms: _76  and  _79
REMARK   34  A    between atoms: _79  and  _80
REMARK   35  A    between atoms: _83  and  _85
REMARK   36  A    between atoms: _85  and  _86
REMARK   37  A    between atoms: _85  and  _88
REMARK   38  A    between atoms: _88  and  _89
REMARK   39  A    between atoms: _92  and  _94
REMARK   40  A    between atoms: _94  and  _95
REMARK   41  A    between atoms: _94  and  _97
REMARK   42  A    between atoms: _100  and  _102
REMARK   43  A    between atoms: _102  and  _103
REMARK   44  A    between atoms: _102  and  _105
REMARK   45  A    between atoms: _105  and  _106
REMARK   46  A    between atoms: _109  and  _111
REMARK   47  A    between atoms: _111  and  _112
REMARK   48  A    between atoms: _111  and  _114
REMARK   49  A    between atoms: _114  and  _115
REMARK   50  A    between atoms: _115  and  _116
REMARK   51  A    between atoms: _116  and  _117
REMARK   52  A    between atoms: _117  and  _118
REMARK   53  A    between atoms: _122  and  _124
REMARK   54  A    between atoms: _124  and  _125
REMARK   55  A    between atoms: _124  and  _127
REMARK   56  A    between atoms: _127  and  _128
REMARK   57  A    between atoms: _128  and  _129
REMARK   58  A    between atoms: _131  and  _133
REMARK   59  A    between atoms: _133  and  _134
REMARK   60  A    between atoms: _133  and  _136
REMARK   61  A    between atoms: _136  and  _137
REMARK   62  A    between atoms: _140  and  _142
REMARK   63  A    between atoms: _142  and  _143
REMARK   64  A    between atoms: _145  and  _147
REMARK   65  A    between atoms: _147  and  _148
REMARK   66  A    between atoms: _150  and  _152
REMARK   67  A    between atoms: _152  and  _153
REMARK   68  A    between atoms: _152  and  _155
REMARK   69  A    between atoms: _155  and  _156
REMARK   70  A    between atoms: _159  and  _161
REMARK   71  A    between atoms: _161  and  _162
REMARK   72  A    between atoms: _164  and  _166
REMARK   73  A    between atoms: _166  and  _167
REMARK   74  A    between atoms: _169  and  _171
REMARK   75  A    between atoms: _171  and  _172
REMARK   76  A    between atoms: _171  and  _174
REMARK   77  A    between atoms: _174  and  _175
REMARK   78  A    between atoms: _181  and  _183
REMARK   79  A    between atoms: _183  and  _184
REMARK   80  A    between atoms: _183  and  _186
REMARK   81  A    between atoms: _186  and  _187
REMARK   82  A    between atoms: _190  and  _192
REMARK   83  A    between atoms: _192  and  _193
REMARK   84  A    between atoms: _192  and  _195
REMARK   85  A    between atoms: _195  and  _196
REMARK   86  A    between atoms: _200  and  _201
REMARK   87  A    between atoms: _206  and  _208
REMARK   88  A    between atoms: _208  and  _209
REMARK   89  A    between atoms: _208  and  _211
REMARK   90  A    between atoms: _211  and  _212
REMARK   91  A    between atoms: _216  and  _217
REMARK   92  A    between atoms: _222  and  _224
REMARK   93  A    between atoms: _224  and  _225
REMARK   94  A    between atoms: _224  and  _227
REMARK   95  A    between atoms: _227  and  _228
REMARK   96  A    between atoms: _234  and  _236
REMARK   97  A    between atoms: _236  and  _237
REMARK   98  A    between atoms: _236  and  _239
REMARK   99  A    between atoms: _239  and  _240
REMARK  100  A    between atoms: _245  and  _247
REMARK  101  A    between atoms: _247  and  _248
REMARK  102  A    between atoms: _247  and  _250
REMARK  103  A    between atoms: _253  and  _255
REMARK  104  A    between atoms: _255  and  _256
REMARK  105  A    between atoms: _255  and  _258
REMARK  106  A    between atoms: _258  and  _259
REMARK  107  A    between atoms: _262  and  _264
REMARK  108  A    between atoms: _264  and  _265
REMARK  109  A    between atoms: _267  and  _269
REMARK  110  A    between atoms: _269  and  _270
REMARK  111  A    between atoms: _269  and  _272
REMARK  112  A    between atoms: _272  and  _273
REMARK  113  A    between atoms: _273  and  _274
REMARK  114  A    between atoms: _274  and  _275
REMARK  115  A    between atoms: _284  and  _286
REMARK  116  A    between atoms: _286  and  _287
REMARK  117  A    between atoms: _286  and  _289
REMARK  118  A    between atoms: _289  and  _290
REMARK  119  A    between atoms: _295  and  _297
REMARK  120  A    between atoms: _297  and  _298
REMARK  121  A    between atoms: _297  and  _300
REMARK  122  A    between atoms: _300  and  _301
REMARK  123  A    between atoms: _301  and  _302
REMARK  124  A    between atoms: _302  and  _303
REMARK  125  A    between atoms: _312  and  _314
REMARK  126  A    between atoms: _314  and  _315
REMARK  127  A    between atoms: _314  and  _317
REMARK  128  A    between atoms: _317  and  _318
REMARK  129  A    between atoms: _321  and  _323
REMARK  130  A    between atoms: _323  and  _324
REMARK  131  A    between atoms: _323  and  _326
REMARK  132  A    between atoms: _326  and  _327
REMARK  133  A    between atoms: _330  and  _332
REMARK  134  A    between atoms: _332  and  _333
REMARK  135  A    between atoms: _332  and  _335
REMARK  136  A    between atoms: _335  and  _336
REMARK  137  A    between atoms: _339  and  _341
REMARK  138  A    between atoms: _341  and  _342
REMARK  139  A    between atoms: _341  and  _344
REMARK  140  A    between atoms: _344  and  _345
REMARK  141  A    between atoms: _348  and  _350
REMARK  142  A    between atoms: _350  and  _351
REMARK  143  A    between atoms: _353  and  _355
REMARK  144  A    between atoms: _355  and  _356
REMARK  145  A    between atoms: _359  and  _361
REMARK  146  A    between atoms: _361  and  _362
REMARK  147  A    between atoms: _361  and  _364
REMARK  148  A    between atoms: _364  and  _365
REMARK  149  A    between atoms: _368  and  _370
REMARK  150  A    between atoms: _370  and  _371
REMARK  151  A    between atoms: _370  and  _373
REMARK  152  A    between atoms: _373  and  _374
REMARK  153  A    between atoms: _377  and  _379
REMARK  154  A    between atoms: _379  and  _380
REMARK  155  A    between atoms: _379  and  _382
REMARK  156  A    between atoms: _382  and  _383
REMARK  157  A    between atoms: _386  and  _388
REMARK  158  A    between atoms: _388  and  _389
REMARK  159  A    between atoms: _388  and  _391
REMARK  160  A    between atoms: _394  and  _396
REMARK  161  A    between atoms: _396  and  _397
REMARK  162  A    between atoms: _396  and  _399
REMARK  163  A    between atoms: _399  and  _400
REMARK  164  A    between atoms: _403  and  _405
REMARK  165  A    between atoms: _405  and  _406
REMARK  166  A    between atoms: _405  and  _408
REMARK  167  A    between atoms: _408  and  _409
REMARK  168  A    between atoms: _409  and  _410
REMARK  169  A    between atoms: _410  and  _411
REMARK  170  A    between atoms: _411  and  _412
REMARK  171  A    between atoms: _416  and  _418
REMARK  172  A    between atoms: _418  and  _419
REMARK  173  A    between atoms: _418  and  _421
REMARK  174  A    between atoms: _421  and  _422
REMARK  175  A    between atoms: _422  and  _423
REMARK  176  A    between atoms: _425  and  _427
REMARK  177  A    between atoms: _427  and  _428
REMARK  178  A    between atoms: _427  and  _430
REMARK  179  A    between atoms: _430  and  _431
REMARK  180  A    between atoms: _434  and  _436
REMARK  181  A    between atoms: _436  and  _437
REMARK  182  A    between atoms: _439  and  _441
REMARK  183  A    between atoms: _441  and  _442
REMARK  184  A    between atoms: _444  and  _446
REMARK  185  A    between atoms: _446  and  _447
REMARK  186  A    between atoms: _446  and  _449
REMARK  187  A    between atoms: _449  and  _450
REMARK  188  A    between atoms: _453  and  _455
REMARK  189  A    between atoms: _455  and  _456
REMARK  190  A    between atoms: _458  and  _460
REMARK  191  A    between atoms: _460  and  _461
REMARK  192  A    between atoms: _463  and  _465
REMARK  193  A    between atoms: _465  and  _466
REMARK  194  A    between atoms: _465  and  _468
REMARK  195  A    between atoms: _468  and  _469
REMARK  196  A    between atoms: _475  and  _477
REMARK  197  A    between atoms: _477  and  _478
REMARK  198  A    between atoms: _477  and  _480
REMARK  199  A    between atoms: _480  and  _481
REMARK  200  A    between atoms: _484  and  _486
REMARK  201  A    between atoms: _486  and  _487
REMARK  202  A    between atoms: _486  and  _489
REMARK  203  A    between atoms: _489  and  _490
REMARK  204  A    between atoms: _494  and  _495
REMARK  205  A    between atoms: _500  and  _502
REMARK  206  A    between atoms: _502  and  _503
REMARK  207  A    between atoms: _502  and  _505
REMARK  208  A    between atoms: _505  and  _506
REMARK  209  A    between atoms: _510  and  _511
REMARK  210  A    between atoms: _516  and  _518
REMARK  211  A    between atoms: _518  and  _519
REMARK  212  A    between atoms: _518  and  _521
REMARK  213  A    between atoms: _521  and  _522
REMARK  214  A    between atoms: _528  and  _530
REMARK  215  A    between atoms: _530  and  _531
REMARK  216  A    between atoms: _530  and  _533
REMARK  217  A    between atoms: _533  and  _534
REMARK  218  A    between atoms: _539  and  _541
REMARK  219  A    between atoms: _541  and  _542
REMARK  220  A    between atoms: _541  and  _544
REMARK  221  A    between atoms: _547  and  _549
REMARK  222  A    between atoms: _549  and  _550
REMARK  223  A    between atoms: _549  and  _552
REMARK  224  A    between atoms: _552  and  _553
REMARK  225  A    between atoms: _556  and  _558
REMARK  226  A    between atoms: _558  and  _559
REMARK  227  A    between atoms: _561  and  _563
REMARK  228  A    between atoms: _563  and  _564
REMARK  229  A    between atoms: _563  and  _566
REMARK  230  A    between atoms: _566  and  _567
REMARK  231  A    between atoms: _567  and  _568
REMARK  232  A    between atoms: _568  and  _569
REMARK  233  A    between atoms: _578  and  _580
REMARK  234  A    between atoms: _580  and  _581
REMARK  235  A    between atoms: _580  and  _583
REMARK  236  A    between atoms: _583  and  _584
REMARK                            x       y       z     vdW  Elec       q    Type
REMARK                         _______ _______ _______ _____ _____    ______ ____
ROOT
ATOM      1  C   ASN A   5     -18.187  14.518  23.484  0.00  0.00    +0.241 C 
ATOM      2  O   ASN A   5     -18.767  15.089  24.401  0.00  0.00    -0.273 OA
ATOM      3  N   VAL A   6     -17.209  15.027  22.775  0.00  0.00    -0.297 N 
ATOM      4  H   VAL A   6     -16.842  14.478  21.972  0.00  0.00    +0.150 HD
ENDROOT
BRANCH   1   5
ATOM      5  CA  ASN A   5     -18.575  13.133  23.082  0.00  0.00    +0.158 C 
BRANCH   5   8
ATOM      6  C   PHE A   4     -17.502  11.973  24.825  0.00  0.00    +0.241 C 
ATOM      7  O   PHE A   4     -16.424  12.250  24.353  0.00  0.00    -0.273 OA
ATOM      8  N   ASN A   5     -18.643  12.298  24.268  0.00  0.00    -0.297 N 
ATOM      9  H   ASN A   5     -19.552  11.974  24.656  0.00  0.00    +0.150 HD
BRANCH   6  10
ATOM     10  CA  PHE A   4     -17.606  11.213  26.093  0.00  0.00    +0.153 C 
BRANCH  10  13
ATOM     11  C   PRO A   3     -16.814   9.106  26.723  0.00  0.00    +0.241 C 
ATOM     12  O   PRO A   3     -17.914   8.901  27.223  0.00  0.00    -0.273 OA
ATOM     13  N   PHE A   4     -16.543  10.226  26.071  0.00  0.00    -0.297 N 
ATOM     14  H   PHE A   4     -15.639  10.386  25.582  0.00  0.00    +0.150 HD
BRANCH  11  17
ATOM     15  C   THR A   2     -14.667   7.987  24.645  0.00  0.00    +0.246 C 
ATOM     16  N   PRO A   3     -14.547   8.295  25.944  0.00  0.00    -0.272 N 
ATOM     17  CA  PRO A   3     -15.669   8.124  26.888  0.00  0.00    +0.152 C 
ATOM     18  CB  PRO A   3     -15.040   8.408  28.270  0.00  0.00    +0.031 C 
ATOM     19  CG  PRO A   3     -13.529   8.417  28.080  0.00  0.00    +0.024 C 
ATOM     20  CD  PRO A   3     -13.340   8.784  26.614  0.00  0.00    +0.094 C 
ATOM     21  O   THR A   2     -15.558   7.294  24.187  0.00  0.00    -0.273 OA
BRANCH  15  22
ATOM     22  CA  THR A   2     -13.619   8.554  23.712  0.00  0.00    +0.176 C 
BRANCH  22  25
ATOM     23  C   PRO A   1     -12.760   6.606  22.639  0.00  0.00    +0.239 C 
ATOM     24  O   PRO A   1     -12.022   6.400  23.590  0.00  0.00    -0.274 OA
ATOM     25  N   THR A   2     -13.523   7.679  22.547  0.00  0.00    -0.295 N 
ATOM     26  H   THR A   2     -14.040   7.895  21.671  0.00  0.00    +0.150 HD
BRANCH  23  28
ATOM     27  N   PRO A   1     -12.674   6.127  20.139  0.00  0.00    -0.210 NA
ATOM     28  CA  PRO A   1     -12.903   5.618  21.491  0.00  0.00    +0.149 C 
ATOM     29  CB  PRO A   1     -11.878   4.497  21.534  0.00  0.00    +0.028 C 
ATOM     30  CG  PRO A   1     -10.729   5.025  20.703  0.00  0.00    +0.021 C 
ATOM     31  CD  PRO A   1     -11.440   5.663  19.541  0.00  0.00    +0.089 C 
ENDBRANCH  23  28
ENDBRANCH  22  25
BRANCH  22  32
ATOM     32  CB  THR A   2     -14.024   9.924  23.171  0.00  0.00    +0.137 C 
ATOM     33  CG2 THR A   2     -15.301   9.868  22.365  0.00  0.00    +0.034 C 
BRANCH  32  34
ATOM     34  OG1 THR A   2     -14.155  10.861  24.224  0.00  0.00    -0.382 OA
ATOM     35  HG1 THR A   2     -14.417  11.740  23.851  0.00  0.00    +0.210 HD
ENDBRANCH  32  34
ENDBRANCH  22  32
ENDBRANCH  15  22
ENDBRANCH  11  17
ENDBRANCH  10  13
BRANCH  10  36
ATOM     36  CB  PHE A   4     -17.449  12.149  27.323  0.00  0.00    +0.055 C 
BRANCH  36  37
ATOM     37  CG  PHE A   4     -18.814  12.558  27.823  0.00  0.00    -0.020 A 
ATOM     38  CD2 PHE A   4     -19.386  11.887  28.928  0.00  0.00    -0.004 A 
ATOM     39  CE2 PHE A   4     -20.684  12.247  29.387  0.00  0.00    -0.000 A 
ATOM     40  CZ  PHE A   4     -21.417  13.274  28.736  0.00  0.00    -0.000 A 
ATOM     41  CE1 PHE A   4     -20.845  13.945  27.631  0.00  0.00    -0.000 A 
ATOM     42  CD1 PHE A   4     -19.546  13.586  27.182  0.00  0.00    -0.004 A 
ENDBRANCH  36  37
ENDBRANCH  10  36
ENDBRANCH   6  10
ENDBRANCH   5   8
BRANCH   5  43
ATOM     43  CB  ASN A   5     -19.934  13.300  22.432  0.00  0.00    +0.114 C 
BRANCH  43  44
ATOM     44  CG  ASN A   5     -20.506  12.008  21.992  0.00  0.00    +0.222 C 
ATOM     45  ND2 ASN A   5     -21.725  11.804  22.453  0.00  0.00    -0.329 N 
ATOM     46 HD21 ASN A   5     -22.186  12.527  23.042  0.00  0.00    +0.145 HD
ATOM     47 HD22 ASN A   5     -22.225  10.920  22.227  0.00  0.00    +0.145 HD
ATOM     48  OD1 ASN A   5     -19.891  11.219  21.297  0.00  0.00    -0.275 OA
ENDBRANCH  43  44
ENDBRANCH   5  43
ENDBRANCH   1   5
BRANCH   3  49
ATOM     49  CA  VAL A   6     -16.606  16.339  23.062  0.00  0.00    +0.149 C 
BRANCH  49  50
ATOM     50  C   VAL A   6     -16.777  17.217  21.825  0.00  0.00    +0.241 C 
ATOM     51  N   ILE A   7     -17.332  18.411  21.985  0.00  0.00    -0.297 N 
ATOM     52  H   ILE A   7     -17.813  18.649  22.876  0.00  0.00    +0.150 HD
ATOM     53  O   VAL A   6     -16.386  16.823  20.740  0.00  0.00    -0.273 OA
BRANCH  51  54
ATOM     54  CA  ILE A   7     -17.262  19.398  20.892  0.00  0.00    +0.149 C 
BRANCH  54  55
ATOM     55  C   ILE A   7     -16.158  20.376  21.179  0.00  0.00    +0.241 C 
ATOM     56  O   ILE A   7     -16.195  21.052  22.197  0.00  0.00    -0.273 OA
ATOM     57  N   GLY A   8     -15.196  20.436  20.272  0.00  0.00    -0.295 N 
ATOM     58  H   GLY A   8     -15.304  19.918  19.377  0.00  0.00    +0.150 HD
BRANCH  57  59
ATOM     59  CA  GLY A   8     -13.984  21.219  20.509  0.00  0.00    +0.176 C 
BRANCH  59  60
ATOM     60  C   GLY A   8     -14.017  22.554  19.796  0.00  0.00    +0.243 C 
ATOM     61  N   ARG A   9     -12.900  23.250  19.839  0.00  0.00    -0.297 N 
ATOM     62  H   ARG A   9     -12.010  22.839  20.188  0.00  0.00    +0.150 HD
ATOM     63  O   GLY A   8     -15.017  22.977  19.212  0.00  0.00    -0.273 OA
BRANCH  61  64
ATOM     64  CA  ARG A   9     -12.979  24.625  19.372  0.00  0.00    +0.149 C 
BRANCH  64  65
ATOM     65  C   ARG A   9     -13.235  24.762  17.919  0.00  0.00    +0.241 C 
ATOM     66  O   ARG A   9     -13.849  25.729  17.489  0.00  0.00    -0.273 OA
ATOM     67  N   ASN A  10     -12.830  23.750  17.164  0.00  0.00    -0.298 N 
ATOM     68  H   ASN A  10     -12.282  22.962  17.564  0.00  0.00    +0.150 HD
BRANCH  67  69
ATOM     69  CA  ASN A  10     -13.188  23.786  15.734  0.00  0.00    +0.146 C 
BRANCH  69  70
ATOM     70  C   ASN A  10     -14.670  23.906  15.407  0.00  0.00    +0.227 C 
ATOM     71  O   ASN A  10     -15.046  24.462  14.397  0.00  0.00    -0.286 OA
ENDBRANCH  69  70
BRANCH  69  72
ATOM     72  CB  ASN A  10     -12.643  22.583  14.950  0.00  0.00    +0.112 C 
BRANCH  72  73
ATOM     73  CG  ASN A  10     -13.405  21.288  15.189  0.00  0.00    +0.222 C 
ATOM     74  OD1 ASN A  10     -13.790  20.910  16.282  0.00  0.00    -0.275 OA
ATOM     75  ND2 ASN A  10     -13.629  20.584  14.099  0.00  0.00    -0.329 N 
ATOM     76 HD21 ASN A  10     -14.145  19.683  14.159  0.00  0.00    +0.145 HD
ATOM     77 HD22 ASN A  10     -13.290  20.929  13.178  0.00  0.00    +0.145 HD
ENDBRANCH  72  73
ENDBRANCH  69  72
ENDBRANCH  67  69
ENDBRANCH  64  65
BRANCH  64  78
ATOM     78  CB  ARG A   9     -11.741  25.437  19.699  0.00  0.00    +0.033 C 
BRANCH  78  79
ATOM     79  CG  ARG A   9     -11.379  25.552  21.186  0.00  0.00    +0.045 C 
BRANCH  79  80
ATOM     80  CD  ARG A   9     -10.142  26.452  21.391  0.00  0.00    +0.174 C 
BRANCH  80  81
ATOM     81  NE  ARG A   9      -8.928  25.827  20.881  0.00  0.00    -0.265 N 
ATOM     82  HE  ARG A   9      -8.521  25.011  21.381  0.00  0.00    +0.259 HD
ATOM     83  CZ  ARG A   9      -8.338  26.284  19.791  0.00  0.00    +0.342 C 
ATOM     84  NH2 ARG A   9      -7.255  25.685  19.360  0.00  0.00    -0.292 N 
ATOM     85 HH21 ARG A   9      -6.875  24.865  19.874  0.00  0.00    +0.255 HD
ATOM     86 HH22 ARG A   9      -6.776  26.030  18.504  0.00  0.00    +0.255 HD
ATOM     87  NH1 ARG A   9      -8.803  27.311  19.116  0.00  0.00    -0.292 N 
ATOM     88 HH11 ARG A   9      -9.666  27.795  19.435  0.00  0.00    +0.255 HD
ATOM     89 HH12 ARG A   9      -8.308  27.639  18.262  0.00  0.00    +0.255 HD
ENDBRANCH  80  81
ENDBRANCH  79  80
ENDBRANCH  78  79
ENDBRANCH  64  78
ENDBRANCH  61  64
ENDBRANCH  59  60
ENDBRANCH  57  59
ENDBRANCH  54  55
BRANCH  54  90
ATOM     90  CB  ILE A   7     -18.549  20.223  20.855  0.00  0.00    +0.027 C 
ATOM     91  CG2 ILE A   7     -18.547  21.180  19.682  0.00  0.00    +0.002 C 
BRANCH  90  92
ATOM     92  CG1 ILE A   7     -19.831  19.367  20.847  0.00  0.00    +0.002 C 
ATOM     93  CD1 ILE A   7     -19.990  18.434  19.640  0.00  0.00    +0.000 C 
ENDBRANCH  90  92
ENDBRANCH  54  90
ENDBRANCH  51  54
ENDBRANCH  49  50
BRANCH  49  94
ATOM     94  CB  VAL A   6     -15.089  16.052  23.362  0.00  0.00    +0.027 C 
ATOM     95  CG2 VAL A   6     -14.886  15.468  24.761  0.00  0.00    +0.002 C 
ATOM     96  CG1 VAL A   6     -14.181  17.255  23.248  0.00  0.00    +0.002 C 
ENDBRANCH  49  94
ENDBRANCH   3  49
TORSDOF 33
REMARK  Name = ../refined-set-2016/1bwa/1bwa_pocket.pdb
REMARK  236 active torsions:
REMARK  status: ('A' for Active; 'I' for Inactive)
REMARK    1  A    between atoms: _1  and  _3
REMARK    2  A    between atoms: _3  and  _4
REMARK    3  A    between atoms: _3  and  _6
REMARK    4  A    between atoms: _6  and  _7
REMARK    5  A    between atoms: _7  and  _8
REMARK    6  A    between atoms: _8  and  _9
REMARK    7  A    between atoms: _18  and  _20
REMARK    8  A    between atoms: _20  and  _21
REMARK    9  A    between atoms: _20  and  _23
REMARK   10  A    between atoms: _23  and  _24
REMARK   11  A    between atoms: _27  and  _29
REMARK   12  A    between atoms: _29  and  _30
REMARK   13  A    between atoms: _29  and  _32
REMARK   14  A    between atoms: _32  and  _33
REMARK   15  A    between atoms: _36  and  _38
REMARK   16  A    between atoms: _38  and  _39
REMARK   17  A    between atoms: _38  and  _41
REMARK   18  A    between atoms: _41  and  _42
REMARK   19  A    between atoms: _45  and  _47
REMARK   20  A    between atoms: _47  and  _48
REMARK   21  A    between atoms: _47  and  _50
REMARK   22  A    between atoms: _50  and  _51
REMARK   23  A    between atoms: _54  and  _56
REMARK   24  A    between atoms: _56  and  _57
REMARK   25  A    between atoms: _59  and  _61
REMARK   26  A    between atoms: _61  and  _62
REMARK   27  A    between atoms: _65  and  _67
REMARK   28  A    between atoms: _67  and  _68
REMARK   29  A    between atoms: _67  and  _70
REMARK   30  A    between atoms: _70  and  _71
REMARK   31  A    between atoms: _74  and  _76
REMARK   32  A    between atoms: _76  and  _77
REMARK   33  A    between atoms: _76  and  _79
REMARK   34  A    between atoms: _79  and  _80
REMARK   35  A    between atoms: _83  and  _85
REMARK   36  A    between atoms: _85  and  _86
REMARK   37  A    between atoms: _85  and  _88
REMARK   38  A    between atoms: _88  and  _89
REMARK   39  A    between atoms: _92  and  _94
REMARK   40  A    between atoms: _94  and  _95
REMARK   41  A    between atoms: _94  and  _97
REMARK   42  A    between atoms: _100  and  _102
REMARK   43  A    between atoms: _102  and  _103
REMARK   44  A    between atoms: _102  and  _105
REMARK   45  A    between atoms: _105  and  _106
REMARK   46  A    between atoms: _109  and  _111
REMARK   47  A    between atoms: _111  and  _112
REMARK   48  A    between atoms: _111  and  _114
REMARK   49  A    between atoms: _114  and  _115
REMARK   50  A    between atoms: _115  and  _116
REMARK   51  A    between atoms: _116  and  _117
REMARK   52  A    between atoms: _117  and  _118
REMARK   53  A    between atoms: _122  and  _124
REMARK   54  A    between atoms: _124  and  _125
REMARK   55  A    between atoms: _124  and  _127
REMARK   56  A    between atoms: _127  and  _128
REMARK   57  A    between atoms: _128  and  _129
REMARK   58  A    between atoms: _131  and  _133
REMARK   59  A    between atoms: _133  and  _134
REMARK   60  A    between atoms: _133  and  _136
REMARK   61  A    between atoms: _136  and  _137
REMARK   62  A    between atoms: _140  and  _142
REMARK   63  A    between atoms: _142  and  _143
REMARK   64  A    between atoms: _145  and  _147
REMARK   65  A    between atoms: _147  and  _148
REMARK   66  A    between atoms: _150  and  _152
REMARK   67  A    between atoms: _152  and  _153
REMARK   68  A    between atoms: _152  and  _155
REMARK   69  A    between atoms: _155  and  _156
REMARK   70  A    between atoms: _159  and  _161
REMARK   71  A    between atoms: _161  and  _162
REMARK   72  A    between atoms: _164  and  _166
REMARK   73  A    between atoms: _166  and  _167
REMARK   74  A    between atoms: _169  and  _171
REMARK   75  A    between atoms: _171  and  _172
REMARK   76  A    between atoms: _171  and  _174
REMARK   77  A    between atoms: _174  and  _175
REMARK   78  A    between atoms: _181  and  _183
REMARK   79  A    between atoms: _183  and  _184
REMARK   80  A    between atoms: _183  and  _186
REMARK   81  A    between atoms: _186  and  _187
REMARK   82  A    between atoms: _190  and  _192
REMARK   83  A    between atoms: _192  and  _193
REMARK   84  A    between atoms: _192  and  _195
REMARK   85  A    between atoms: _195  and  _196
REMARK   86  A    between atoms: _200  and  _201
REMARK   87  A    between atoms: _206  and  _208
REMARK   88  A    between atoms: _208  and  _209
REMARK   89  A    between atoms: _208  and  _211
REMARK   90  A    between atoms: _211  and  _212
REMARK   91  A    between atoms: _216  and  _217
REMARK   92  A    between atoms: _222  and  _224
REMARK   93  A    between atoms: _224  and  _225
REMARK   94  A    between atoms: _224  and  _227
REMARK   95  A    between atoms: _227  and  _228
REMARK   96  A    between atoms: _234  and  _236
REMARK   97  A    between atoms: _236  and  _237
REMARK   98  A    between atoms: _236  and  _239
REMARK   99  A    between atoms: _239  and  _240
REMARK  100  A    between atoms: _245  and  _247
REMARK  101  A    between atoms: _247  and  _248
REMARK  102  A    between atoms: _247  and  _250
REMARK  103  A    between atoms: _253  and  _255
REMARK  104  A    between atoms: _255  and  _256
REMARK  105  A    between atoms: _255  and  _258
REMARK  106  A    between atoms: _258  and  _259
REMARK  107  A    between atoms: _262  and  _264
REMARK  108  A    between atoms: _264  and  _265
REMARK  109  A    between atoms: _267  and  _269
REMARK  110  A    between atoms: _269  and  _270
REMARK  111  A    between atoms: _269  and  _272
REMARK  112  A    between atoms: _272  and  _273
REMARK  113  A    between atoms: _273  and  _274
REMARK  114  A    between atoms: _274  and  _275
REMARK  115  A    between atoms: _284  and  _286
REMARK  116  A    between atoms: _286  and  _287
REMARK  117  A    between atoms: _286  and  _289
REMARK  118  A    between atoms: _289  and  _290
REMARK  119  A    between atoms: _295  and  _297
REMARK  120  A    between atoms: _297  and  _298
REMARK  121  A    between atoms: _297  and  _300
REMARK  122  A    between atoms: _300  and  _301
REMARK  123  A    between atoms: _301  and  _302
REMARK  124  A    between atoms: _302  and  _303
REMARK  125  A    between atoms: _312  and  _314
REMARK  126  A    between atoms: _314  and  _315
REMARK  127  A    between atoms: _314  and  _317
REMARK  128  A    between atoms: _317  and  _318
REMARK  129  A    between atoms: _321  and  _323
REMARK  130  A    between atoms: _323  and  _324
REMARK  131  A    between atoms: _323  and  _326
REMARK  132  A    between atoms: _326  and  _327
REMARK  133  A    between atoms: _330  and  _332
REMARK  134  A    between atoms: _332  and  _333
REMARK  135  A    between atoms: _332  and  _335
REMARK  136  A    between atoms: _335  and  _336
REMARK  137  A    between atoms: _339  and  _341
REMARK  138  A    between atoms: _341  and  _342
REMARK  139  A    between atoms: _341  and  _344
REMARK  140  A    between atoms: _344  and  _345
REMARK  141  A    between atoms: _348  and  _350
REMARK  142  A    between atoms: _350  and  _351
REMARK  143  A    between atoms: _353  and  _355
REMARK  144  A    between atoms: _355  and  _356
REMARK  145  A    between atoms: _359  and  _361
REMARK  146  A    between atoms: _361  and  _362
REMARK  147  A    between atoms: _361  and  _364
REMARK  148  A    between atoms: _364  and  _365
REMARK  149  A    between atoms: _368  and  _370
REMARK  150  A    between atoms: _370  and  _371
REMARK  151  A    between atoms: _370  and  _373
REMARK  152  A    between atoms: _373  and  _374
REMARK  153  A    between atoms: _377  and  _379
REMARK  154  A    between atoms: _379  and  _380
REMARK  155  A    between atoms: _379  and  _382
REMARK  156  A    between atoms: _382  and  _383
REMARK  157  A    between atoms: _386  and  _388
REMARK  158  A    between atoms: _388  and  _389
REMARK  159  A    between atoms: _388  and  _391
REMARK  160  A    between atoms: _394  and  _396
REMARK  161  A    between atoms: _396  and  _397
REMARK  162  A    between atoms: _396  and  _399
REMARK  163  A    between atoms: _399  and  _400
REMARK  164  A    between atoms: _403  and  _405
REMARK  165  A    between atoms: _405  and  _406
REMARK  166  A    between atoms: _405  and  _408
REMARK  167  A    between atoms: _408  and  _409
REMARK  168  A    between atoms: _409  and  _410
REMARK  169  A    between atoms: _410  and  _411
REMARK  170  A    between atoms: _411  and  _412
REMARK  171  A    between atoms: _416  and  _418
REMARK  172  A    between atoms: _418  and  _419
REMARK  173  A    between atoms: _418  and  _421
REMARK  174  A    between atoms: _421  and  _422
REMARK  175  A    between atoms: _422  and  _423
REMARK  176  A    between atoms: _425  and  _427
REMARK  177  A    between atoms: _427  and  _428
REMARK  178  A    between atoms: _427  and  _430
REMARK  179  A    between atoms: _430  and  _431
REMARK  180  A    between atoms: _434  and  _436
REMARK  181  A    between atoms: _436  and  _437
REMARK  182  A    between atoms: _439  and  _441
REMARK  183  A    between atoms: _441  and  _442
REMARK  184  A    between atoms: _444  and  _446
REMARK  185  A    between atoms: _446  and  _447
REMARK  186  A    between atoms: _446  and  _449
REMARK  187  A    between atoms: _449  and  _450
REMARK  188  A    between atoms: _453  and  _455
REMARK  189  A    between atoms: _455  and  _456
REMARK  190  A    between atoms: _458  and  _460
REMARK  191  A    between atoms: _460  and  _461
REMARK  192  A    between atoms: _463  and  _465
REMARK  193  A    between atoms: _465  and  _466
REMARK  194  A    between atoms: _465  and  _468
REMARK  195  A    between atoms: _468  and  _469
REMARK  196  A    between atoms: _475  and  _477
REMARK  197  A    between atoms: _477  and  _478
REMARK  198  A    between atoms: _477  and  _480
REMARK  199  A    between atoms: _480  and  _481
REMARK  200  A    between atoms: _484  and  _486
REMARK  201  A    between atoms: _486  and  _487
REMARK  202  A    between atoms: _486  and  _489
REMARK  203  A    between atoms: _489  and  _490
REMARK  204  A    between atoms: _494  and  _495
REMARK  205  A    between atoms: _500  and  _502
REMARK  206  A    between atoms: _502  and  _503
REMARK  207  A    between atoms: _502  and  _505
REMARK  208  A    between atoms: _505  and  _506
REMARK  209  A    between atoms: _510  and  _511
REMARK  210  A    between atoms: _516  and  _518
REMARK  211  A    between atoms: _518  and  _519
REMARK  212  A    between atoms: _518  and  _521
REMARK  213  A    between atoms: _521  and  _522
REMARK  214  A    between atoms: _528  and  _530
REMARK  215  A    between atoms: _530  and  _531
REMARK  216  A    between atoms: _530  and  _533
REMARK  217  A    between atoms: _533  and  _534
REMARK  218  A    between atoms: _539  and  _541
REMARK  219  A    between atoms: _541  and  _542
REMARK  220  A    between atoms: _541  and  _544
REMARK  221  A    between atoms: _547  and  _549
REMARK  222  A    between atoms: _549  and  _550
REMARK  223  A    between atoms: _549  and  _552
REMARK  224  A    between atoms: _552  and  _553
REMARK  225  A    between atoms: _556  and  _558
REMARK  226  A    between atoms: _558  and  _559
REMARK  227  A    between atoms: _561  and  _563
REMARK  228  A    between atoms: _563  and  _564
REMARK  229  A    between atoms: _563  and  _566
REMARK  230  A    between atoms: _566  and  _567
REMARK  231  A    between atoms: _567  and  _568
REMARK  232  A    between atoms: _568  and  _569
REMARK  233  A    between atoms: _578  and  _580
REMARK  234  A    between atoms: _580  and  _581
REMARK  235  A    between atoms: _580  and  _583
REMARK  236  A    between atoms: _583  and  _584
REMARK                            x       y       z     vdW  Elec       q    Type
REMARK                         _______ _______ _______ _____ _____    ______ ____
ROOT
ATOM      1  O   HOH     1     -13.931  15.570  33.367  0.00  0.00    +0.000 OA
ENDROOT
TORSDOF 0
REMARK  Name = ../refined-set-2016/1bwa/1bwa_pocket.pdb
REMARK  236 active torsions:
REMARK  status: ('A' for Active; 'I' for Inactive)
REMARK    1  A    between atoms: _1  and  _3
REMARK    2  A    between atoms: _3  and  _4
REMARK    3  A    between atoms: _3  and  _6
REMARK    4  A    between atoms: _6  and  _7
REMARK    5  A    between atoms: _7  and  _8
REMARK    6  A    between atoms: _8  and  _9
REMARK    7  A    between atoms: _18  and  _20
REMARK    8  A    between atoms: _20  and  _21
REMARK    9  A    between atoms: _20  and  _23
REMARK   10  A    between atoms: _23  and  _24
REMARK   11  A    between atoms: _27  and  _29
REMARK   12  A    between atoms: _29  and  _30
REMARK   13  A    between atoms: _29  and  _32
REMARK   14  A    between atoms: _32  and  _33
REMARK   15  A    between atoms: _36  and  _38
REMARK   16  A    between atoms: _38  and  _39
REMARK   17  A    between atoms: _38  and  _41
REMARK   18  A    between atoms: _41  and  _42
REMARK   19  A    between atoms: _45  and  _47
REMARK   20  A    between atoms: _47  and  _48
REMARK   21  A    between atoms: _47  and  _50
REMARK   22  A    between atoms: _50  and  _51
REMARK   23  A    between atoms: _54  and  _56
REMARK   24  A    between atoms: _56  and  _57
REMARK   25  A    between atoms: _59  and  _61
REMARK   26  A    between atoms: _61  and  _62
REMARK   27  A    between atoms: _65  and  _67
REMARK   28  A    between atoms: _67  and  _68
REMARK   29  A    between atoms: _67  and  _70
REMARK   30  A    between atoms: _70  and  _71
REMARK   31  A    between atoms: _74  and  _76
REMARK   32  A    between atoms: _76  and  _77
REMARK   33  A    between atoms: _76  and  _79
REMARK   34  A    between atoms: _79  and  _80
REMARK   35  A    between atoms: _83  and  _85
REMARK   36  A    between atoms: _85  and  _86
REMARK   37  A    between atoms: _85  and  _88
REMARK   38  A    between atoms: _88  and  _89
REMARK   39  A    between atoms: _92  and  _94
REMARK   40  A    between atoms: _94  and  _95
REMARK   41  A    between atoms: _94  and  _97
REMARK   42  A    between atoms: _100  and  _102
REMARK   43  A    between atoms: _102  and  _103
REMARK   44  A    between atoms: _102  and  _105
REMARK   45  A    between atoms: _105  and  _106
REMARK   46  A    between atoms: _109  and  _111
REMARK   47  A    between atoms: _111  and  _112
REMARK   48  A    between atoms: _111  and  _114
REMARK   49  A    between atoms: _114  and  _115
REMARK   50  A    between atoms: _115  and  _116
REMARK   51  A    between atoms: _116  and  _117
REMARK   52  A    between atoms: _117  and  _118
REMARK   53  A    between atoms: _122  and  _124
REMARK   54  A    between atoms: _124  and  _125
REMARK   55  A    between atoms: _124  and  _127
REMARK   56  A    between atoms: _127  and  _128
REMARK   57  A    between atoms: _128  and  _129
REMARK   58  A    between atoms: _131  and  _133
REMARK   59  A    between atoms: _133  and  _134
REMARK   60  A    between atoms: _133  and  _136
REMARK   61  A    between atoms: _136  and  _137
REMARK   62  A    between atoms: _140  and  _142
REMARK   63  A    between atoms: _142  and  _143
REMARK   64  A    between atoms: _145  and  _147
REMARK   65  A    between atoms: _147  and  _148
REMARK   66  A    between atoms: _150  and  _152
REMARK   67  A    between atoms: _152  and  _153
REMARK   68  A    between atoms: _152  and  _155
REMARK   69  A    between atoms: _155  and  _156
REMARK   70  A    between atoms: _159  and  _161
REMARK   71  A    between atoms: _161  and  _162
REMARK   72  A    between atoms: _164  and  _166
REMARK   73  A    between atoms: _166  and  _167
REMARK   74  A    between atoms: _169  and  _171
REMARK   75  A    between atoms: _171  and  _172
REMARK   76  A    between atoms: _171  and  _174
REMARK   77  A    between atoms: _174  and  _175
REMARK   78  A    between atoms: _181  and  _183
REMARK   79  A    between atoms: _183  and  _184
REMARK   80  A    between atoms: _183  and  _186
REMARK   81  A    between atoms: _186  and  _187
REMARK   82  A    between atoms: _190  and  _192
REMARK   83  A    between atoms: _192  and  _193
REMARK   84  A    between atoms: _192  and  _195
REMARK   85  A    between atoms: _195  and  _196
REMARK   86  A    between atoms: _200  and  _201
REMARK   87  A    between atoms: _206  and  _208
REMARK   88  A    between atoms: _208  and  _209
REMARK   89  A    between atoms: _208  and  _211
REMARK   90  A    between atoms: _211  and  _212
REMARK   91  A    between atoms: _216  and  _217
REMARK   92  A    between atoms: _222  and  _224
REMARK   93  A    between atoms: _224  and  _225
REMARK   94  A    between atoms: _224  and  _227
REMARK   95  A    between atoms: _227  and  _228
REMARK   96  A    between atoms: _234  and  _236
REMARK   97  A    between atoms: _236  and  _237
REMARK   98  A    between atoms: _236  and  _239
REMARK   99  A    between atoms: _239  and  _240
REMARK  100  A    between atoms: _245  and  _247
REMARK  101  A    between atoms: _247  and  _248
REMARK  102  A    between atoms: _247  and  _250
REMARK  103  A    between atoms: _253  and  _255
REMARK  104  A    between atoms: _255  and  _256
REMARK  105  A    between atoms: _255  and  _258
REMARK  106  A    between atoms: _258  and  _259
REMARK  107  A    between atoms: _262  and  _264
REMARK  108  A    between atoms: _264  and  _265
REMARK  109  A    between atoms: _267  and  _269
REMARK  110  A    between atoms: _269  and  _270
REMARK  111  A    between atoms: _269  and  _272
REMARK  112  A    between atoms: _272  and  _273
REMARK  113  A    between atoms: _273  and  _274
REMARK  114  A    between atoms: _274  and  _275
REMARK  115  A    between atoms: _284  and  _286
REMARK  116  A    between atoms: _286  and  _287
REMARK  117  A    between atoms: _286  and  _289
REMARK  118  A    between atoms: _289  and  _290
REMARK  119  A    between atoms: _295  and  _297
REMARK  120  A    between atoms: _297  and  _298
REMARK  121  A    between atoms: _297  and  _300
REMARK  122  A    between atoms: _300  and  _301
REMARK  123  A    between atoms: _301  and  _302
REMARK  124  A    between atoms: _302  and  _303
REMARK  125  A    between atoms: _312  and  _314
REMARK  126  A    between atoms: _314  and  _315
REMARK  127  A    between atoms: _314  and  _317
REMARK  128  A    between atoms: _317  and  _318
REMARK  129  A    between atoms: _321  and  _323
REMARK  130  A    between atoms: _323  and  _324
REMARK  131  A    between atoms: _323  and  _326
REMARK  132  A    between atoms: _326  and  _327
REMARK  133  A    between atoms: _330  and  _332
REMARK  134  A    between atoms: _332  and  _333
REMARK  135  A    between atoms: _332  and  _335
REMARK  136  A    between atoms: _335  and  _336
REMARK  137  A    between atoms: _339  and  _341
REMARK  138  A    between atoms: _341  and  _342
REMARK  139  A    between atoms: _341  and  _344
REMARK  140  A    between atoms: _344  and  _345
REMARK  141  A    between atoms: _348  and  _350
REMARK  142  A    between atoms: _350  and  _351
REMARK  143  A    between atoms: _353  and  _355
REMARK  144  A    between atoms: _355  and  _356
REMARK  145  A    between atoms: _359  and  _361
REMARK  146  A    between atoms: _361  and  _362
REMARK  147  A    between atoms: _361  and  _364
REMARK  148  A    between atoms: _364  and  _365
REMARK  149  A    between atoms: _368  and  _370
REMARK  150  A    between atoms: _370  and  _371
REMARK  151  A    between atoms: _370  and  _373
REMARK  152  A    between atoms: _373  and  _374
REMARK  153  A    between atoms: _377  and  _379
REMARK  154  A    between atoms: _379  and  _380
REMARK  155  A    between atoms: _379  and  _382
REMARK  156  A    between atoms: _382  and  _383
REMARK  157  A    between atoms: _386  and  _388
REMARK  158  A    between atoms: _388  and  _389
REMARK  159  A    between atoms: _388  and  _391
REMARK  160  A    between atoms: _394  and  _396
REMARK  161  A    between atoms: _396  and  _397
REMARK  162  A    between atoms: _396  and  _399
REMARK  163  A    between atoms: _399  and  _400
REMARK  164  A    between atoms: _403  and  _405
REMARK  165  A    between atoms: _405  and  _406
REMARK  166  A    between atoms: _405  and  _408
REMARK  167  A    between atoms: _408  and  _409
REMARK  168  A    between atoms: _409  and  _410
REMARK  169  A    between atoms: _410  and  _411
REMARK  170  A    between atoms: _411  and  _412
REMARK  171  A    between atoms: _416  and  _418
REMARK  172  A    between atoms: _418  and  _419
REMARK  173  A    between atoms: _418  and  _421
REMARK  174  A    between atoms: _421  and  _422
REMARK  175  A    between atoms: _422  and  _423
REMARK  176  A    between atoms: _425  and  _427
REMARK  177  A    between atoms: _427  and  _428
REMARK  178  A    between atoms: _427  and  _430
REMARK  179  A    between atoms: _430  and  _431
REMARK  180  A    between atoms: _434  and  _436
REMARK  181  A    between atoms: _436  and  _437
REMARK  182  A    between atoms: _439  and  _441
REMARK  183  A    between atoms: _441  and  _442
REMARK  184  A    between atoms: _444  and  _446
REMARK  185  A    between atoms: _446  and  _447
REMARK  186  A    between atoms: _446  and  _449
REMARK  187  A    between atoms: _449  and  _450
REMARK  188  A    between atoms: _453  and  _455
REMARK  189  A    between atoms: _455  and  _456
REMARK  190  A    between atoms: _458  and  _460
REMARK  191  A    between atoms: _460  and  _461
REMARK  192  A    between atoms: _463  and  _465
REMARK  193  A    between atoms: _465  and  _466
REMARK  194  A    between atoms: _465  and  _468
REMARK  195  A    between atoms: _468  and  _469
REMARK  196  A    between atoms: _475  and  _477
REMARK  197  A    between atoms: _477  and  _478
REMARK  198  A    between atoms: _477  and  _480
REMARK  199  A    between atoms: _480  and  _481
REMARK  200  A    between atoms: _484  and  _486
REMARK  201  A    between atoms: _486  and  _487
REMARK  202  A    between atoms: _486  and  _489
REMARK  203  A    between atoms: _489  and  _490
REMARK  204  A    between atoms: _494  and  _495
REMARK  205  A    between atoms: _500  and  _502
REMARK  206  A    between atoms: _502  and  _503
REMARK  207  A    between atoms: _502  and  _505
REMARK  208  A    between atoms: _505  and  _506
REMARK  209  A    between atoms: _510  and  _511
REMARK  210  A    between atoms: _516  and  _518
REMARK  211  A    between atoms: _518  and  _519
REMARK  212  A    between atoms: _518  and  _521
REMARK  213  A    between atoms: _521  and  _522
REMARK  214  A    between atoms: _528  and  _530
REMARK  215  A    between atoms: _530  and  _531
REMARK  216  A    between atoms: _530  and  _533
REMARK  217  A    between atoms: _533  and  _534
REMARK  218  A    between atoms: _539  and  _541
REMARK  219  A    between atoms: _541  and  _542
REMARK  220  A    between atoms: _541  and  _544
REMARK  221  A    between atoms: _547  and  _549
REMARK  222  A    between atoms: _549  and  _550
REMARK  223  A    between atoms: _549  and  _552
REMARK  224  A    between atoms: _552  and  _553
REMARK  225  A    between atoms: _556  and  _558
REMARK  226  A    between atoms: _558  and  _559
REMARK  227  A    between atoms: _561  and  _563
REMARK  228  A    between atoms: _563  and  _564
REMARK  229  A    between atoms: _563  and  _566
REMARK  230  A    between atoms: _566  and  _567
REMARK  231  A    between atoms: _567  and  _568
REMARK  232  A    between atoms: _568  and  _569
REMARK  233  A    between atoms: _578  and  _580
REMARK  234  A    between atoms: _580  and  _581
REMARK  235  A    between atoms: _580  and  _583
REMARK  236  A    between atoms: _583  and  _584
REMARK                            x       y       z     vdW  Elec       q    Type
REMARK                         _______ _______ _______ _____ _____    ______ ____
ROOT
ATOM      1  O   HOH     1      -9.289  19.725  41.077  0.00  0.00    +0.000 OA
ENDROOT
TORSDOF 0
REMARK  Name = ../refined-set-2016/1bwa/1bwa_pocket.pdb
REMARK  236 active torsions:
REMARK  status: ('A' for Active; 'I' for Inactive)
REMARK    1  A    between atoms: _1  and  _3
REMARK    2  A    between atoms: _3  and  _4
REMARK    3  A    between atoms: _3  and  _6
REMARK    4  A    between atoms: _6  and  _7
REMARK    5  A    between atoms: _7  and  _8
REMARK    6  A    between atoms: _8  and  _9
REMARK    7  A    between atoms: _18  and  _20
REMARK    8  A    between atoms: _20  and  _21
REMARK    9  A    between atoms: _20  and  _23
REMARK   10  A    between atoms: _23  and  _24
REMARK   11  A    between atoms: _27  and  _29
REMARK   12  A    between atoms: _29  and  _30
REMARK   13  A    between atoms: _29  and  _32
REMARK   14  A    between atoms: _32  and  _33
REMARK   15  A    between atoms: _36  and  _38
REMARK   16  A    between atoms: _38  and  _39
REMARK   17  A    between atoms: _38  and  _41
REMARK   18  A    between atoms: _41  and  _42
REMARK   19  A    between atoms: _45  and  _47
REMARK   20  A    between atoms: _47  and  _48
REMARK   21  A    between atoms: _47  and  _50
REMARK   22  A    between atoms: _50  and  _51
REMARK   23  A    between atoms: _54  and  _56
REMARK   24  A    between atoms: _56  and  _57
REMARK   25  A    between atoms: _59  and  _61
REMARK   26  A    between atoms: _61  and  _62
REMARK   27  A    between atoms: _65  and  _67
REMARK   28  A    between atoms: _67  and  _68
REMARK   29  A    between atoms: _67  and  _70
REMARK   30  A    between atoms: _70  and  _71
REMARK   31  A    between atoms: _74  and  _76
REMARK   32  A    between atoms: _76  and  _77
REMARK   33  A    between atoms: _76  and  _79
REMARK   34  A    between atoms: _79  and  _80
REMARK   35  A    between atoms: _83  and  _85
REMARK   36  A    between atoms: _85  and  _86
REMARK   37  A    between atoms: _85  and  _88
REMARK   38  A    between atoms: _88  and  _89
REMARK   39  A    between atoms: _92  and  _94
REMARK   40  A    between atoms: _94  and  _95
REMARK   41  A    between atoms: _94  and  _97
REMARK   42  A    between atoms: _100  and  _102
REMARK   43  A    between atoms: _102  and  _103
REMARK   44  A    between atoms: _102  and  _105
REMARK   45  A    between atoms: _105  and  _106
REMARK   46  A    between atoms: _109  and  _111
REMARK   47  A    between atoms: _111  and  _112
REMARK   48  A    between atoms: _111  and  _114
REMARK   49  A    between atoms: _114  and  _115
REMARK   50  A    between atoms: _115  and  _116
REMARK   51  A    between atoms: _116  and  _117
REMARK   52  A    between atoms: _117  and  _118
REMARK   53  A    between atoms: _122  and  _124
REMARK   54  A    between atoms: _124  and  _125
REMARK   55  A    between atoms: _124  and  _127
REMARK   56  A    between atoms: _127  and  _128
REMARK   57  A    between atoms: _128  and  _129
REMARK   58  A    between atoms: _131  and  _133
REMARK   59  A    between atoms: _133  and  _134
REMARK   60  A    between atoms: _133  and  _136
REMARK   61  A    between atoms: _136  and  _137
REMARK   62  A    between atoms: _140  and  _142
REMARK   63  A    between atoms: _142  and  _143
REMARK   64  A    between atoms: _145  and  _147
REMARK   65  A    between atoms: _147  and  _148
REMARK   66  A    between atoms: _150  and  _152
REMARK   67  A    between atoms: _152  and  _153
REMARK   68  A    between atoms: _152  and  _155
REMARK   69  A    between atoms: _155  and  _156
REMARK   70  A    between atoms: _159  and  _161
REMARK   71  A    between atoms: _161  and  _162
REMARK   72  A    between atoms: _164  and  _166
REMARK   73  A    between atoms: _166  and  _167
REMARK   74  A    between atoms: _169  and  _171
REMARK   75  A    between atoms: _171  and  _172
REMARK   76  A    between atoms: _171  and  _174
REMARK   77  A    between atoms: _174  and  _175
REMARK   78  A    between atoms: _181  and  _183
REMARK   79  A    between atoms: _183  and  _184
REMARK   80  A    between atoms: _183  and  _186
REMARK   81  A    between atoms: _186  and  _187
REMARK   82  A    between atoms: _190  and  _192
REMARK   83  A    between atoms: _192  and  _193
REMARK   84  A    between atoms: _192  and  _195
REMARK   85  A    between atoms: _195  and  _196
REMARK   86  A    between atoms: _200  and  _201
REMARK   87  A    between atoms: _206  and  _208
REMARK   88  A    between atoms: _208  and  _209
REMARK   89  A    between atoms: _208  and  _211
REMARK   90  A    between atoms: _211  and  _212
REMARK   91  A    between atoms: _216  and  _217
REMARK   92  A    between atoms: _222  and  _224
REMARK   93  A    between atoms: _224  and  _225
REMARK   94  A    between atoms: _224  and  _227
REMARK   95  A    between atoms: _227  and  _228
REMARK   96  A    between atoms: _234  and  _236
REMARK   97  A    between atoms: _236  and  _237
REMARK   98  A    between atoms: _236  and  _239
REMARK   99  A    between atoms: _239  and  _240
REMARK  100  A    between atoms: _245  and  _247
REMARK  101  A    between atoms: _247  and  _248
REMARK  102  A    between atoms: _247  and  _250
REMARK  103  A    between atoms: _253  and  _255
REMARK  104  A    between atoms: _255  and  _256
REMARK  105  A    between atoms: _255  and  _258
REMARK  106  A    between atoms: _258  and  _259
REMARK  107  A    between atoms: _262  and  _264
REMARK  108  A    between atoms: _264  and  _265
REMARK  109  A    between atoms: _267  and  _269
REMARK  110  A    between atoms: _269  and  _270
REMARK  111  A    between atoms: _269  and  _272
REMARK  112  A    between atoms: _272  and  _273
REMARK  113  A    between atoms: _273  and  _274
REMARK  114  A    between atoms: _274  and  _275
REMARK  115  A    between atoms: _284  and  _286
REMARK  116  A    between atoms: _286  and  _287
REMARK  117  A    between atoms: _286  and  _289
REMARK  118  A    between atoms: _289  and  _290
REMARK  119  A    between atoms: _295  and  _297
REMARK  120  A    between atoms: _297  and  _298
REMARK  121  A    between atoms: _297  and  _300
REMARK  122  A    between atoms: _300  and  _301
REMARK  123  A    between atoms: _301  and  _302
REMARK  124  A    between atoms: _302  and  _303
REMARK  125  A    between atoms: _312  and  _314
REMARK  126  A    between atoms: _314  and  _315
REMARK  127  A    between atoms: _314  and  _317
REMARK  128  A    between atoms: _317  and  _318
REMARK  129  A    between atoms: _321  and  _323
REMARK  130  A    between atoms: _323  and  _324
REMARK  131  A    between atoms: _323  and  _326
REMARK  132  A    between atoms: _326  and  _327
REMARK  133  A    between atoms: _330  and  _332
REMARK  134  A    between atoms: _332  and  _333
REMARK  135  A    between atoms: _332  and  _335
REMARK  136  A    between atoms: _335  and  _336
REMARK  137  A    between atoms: _339  and  _341
REMARK  138  A    between atoms: _341  and  _342
REMARK  139  A    between atoms: _341  and  _344
REMARK  140  A    between atoms: _344  and  _345
REMARK  141  A    between atoms: _348  and  _350
REMARK  142  A    between atoms: _350  and  _351
REMARK  143  A    between atoms: _353  and  _355
REMARK  144  A    between atoms: _355  and  _356
REMARK  145  A    between atoms: _359  and  _361
REMARK  146  A    between atoms: _361  and  _362
REMARK  147  A    between atoms: _361  and  _364
REMARK  148  A    between atoms: _364  and  _365
REMARK  149  A    between atoms: _368  and  _370
REMARK  150  A    between atoms: _370  and  _371
REMARK  151  A    between atoms: _370  and  _373
REMARK  152  A    between atoms: _373  and  _374
REMARK  153  A    between atoms: _377  and  _379
REMARK  154  A    between atoms: _379  and  _380
REMARK  155  A    between atoms: _379  and  _382
REMARK  156  A    between atoms: _382  and  _383
REMARK  157  A    between atoms: _386  and  _388
REMARK  158  A    between atoms: _388  and  _389
REMARK  159  A    between atoms: _388  and  _391
REMARK  160  A    between atoms: _394  and  _396
REMARK  161  A    between atoms: _396  and  _397
REMARK  162  A    between atoms: _396  and  _399
REMARK  163  A    between atoms: _399  and  _400
REMARK  164  A    between atoms: _403  and  _405
REMARK  165  A    between atoms: _405  and  _406
REMARK  166  A    between atoms: _405  and  _408
REMARK  167  A    between atoms: _408  and  _409
REMARK  168  A    between atoms: _409  and  _410
REMARK  169  A    between atoms: _410  and  _411
REMARK  170  A    between atoms: _411  and  _412
REMARK  171  A    between atoms: _416  and  _418
REMARK  172  A    between atoms: _418  and  _419
REMARK  173  A    between atoms: _418  and  _421
REMARK  174  A    between atoms: _421  and  _422
REMARK  175  A    between atoms: _422  and  _423
REMARK  176  A    between atoms: _425  and  _427
REMARK  177  A    between atoms: _427  and  _428
REMARK  178  A    between atoms: _427  and  _430
REMARK  179  A    between atoms: _430  and  _431
REMARK  180  A    between atoms: _434  and  _436
REMARK  181  A    between atoms: _436  and  _437
REMARK  182  A    between atoms: _439  and  _441
REMARK  183  A    between atoms: _441  and  _442
REMARK  184  A    between atoms: _444  and  _446
REMARK  185  A    between atoms: _446  and  _447
REMARK  186  A    between atoms: _446  and  _449
REMARK  187  A    between atoms: _449  and  _450
REMARK  188  A    between atoms: _453  and  _455
REMARK  189  A    between atoms: _455  and  _456
REMARK  190  A    between atoms: _458  and  _460
REMARK  191  A    between atoms: _460  and  _461
REMARK  192  A    between atoms: _463  and  _465
REMARK  193  A    between atoms: _465  and  _466
REMARK  194  A    between atoms: _465  and  _468
REMARK  195  A    between atoms: _468  and  _469
REMARK  196  A    between atoms: _475  and  _477
REMARK  197  A    between atoms: _477  and  _478
REMARK  198  A    between atoms: _477  and  _480
REMARK  199  A    between atoms: _480  and  _481
REMARK  200  A    between atoms: _484  and  _486
REMARK  201  A    between atoms: _486  and  _487
REMARK  202  A    between atoms: _486  and  _489
REMARK  203  A    between atoms: _489  and  _490
REMARK  204  A    between atoms: _494  and  _495
REMARK  205  A    between atoms: _500  and  _502
REMARK  206  A    between atoms: _502  and  _503
REMARK  207  A    between atoms: _502  and  _505
REMARK  208  A    between atoms: _505  and  _506
REMARK  209  A    between atoms: _510  and  _511
REMARK  210  A    between atoms: _516  and  _518
REMARK  211  A    between atoms: _518  and  _519
REMARK  212  A    between atoms: _518  and  _521
REMARK  213  A    between atoms: _521  and  _522
REMARK  214  A    between atoms: _528  and  _530
REMARK  215  A    between atoms: _530  and  _531
REMARK  216  A    between atoms: _530  and  _533
REMARK  217  A    between atoms: _533  and  _534
REMARK  218  A    between atoms: _539  and  _541
REMARK  219  A    between atoms: _541  and  _542
REMARK  220  A    between atoms: _541  and  _544
REMARK  221  A    between atoms: _547  and  _549
REMARK  222  A    between atoms: _549  and  _550
REMARK  223  A    between atoms: _549  and  _552
REMARK  224  A    between atoms: _552  and  _553
REMARK  225  A    between atoms: _556  and  _558
REMARK  226  A    between atoms: _558  and  _559
REMARK  227  A    between atoms: _561  and  _563
REMARK  228  A    between atoms: _563  and  _564
REMARK  229  A    between atoms: _563  and  _566
REMARK  230  A    between atoms: _566  and  _567
REMARK  231  A    between atoms: _567  and  _568
REMARK  232  A    between atoms: _568  and  _569
REMARK  233  A    between atoms: _578  and  _580
REMARK  234  A    between atoms: _580  and  _581
REMARK  235  A    between atoms: _580  and  _583
REMARK  236  A    between atoms: _583  and  _584
REMARK                            x       y       z     vdW  Elec       q    Type
REMARK                         _______ _______ _______ _____ _____    ______ ____
ROOT
ATOM      1  O   HOH     1     -15.768  13.883  38.211  0.00  0.00    +0.000 OA
ENDROOT
TORSDOF 0
REMARK  Name = ../refined-set-2016/1bwa/1bwa_pocket.pdb
REMARK  236 active torsions:
REMARK  status: ('A' for Active; 'I' for Inactive)
REMARK    1  A    between atoms: _1  and  _3
REMARK    2  A    between atoms: _3  and  _4
REMARK    3  A    between atoms: _3  and  _6
REMARK    4  A    between atoms: _6  and  _7
REMARK    5  A    between atoms: _7  and  _8
REMARK    6  A    between atoms: _8  and  _9
REMARK    7  A    between atoms: _18  and  _20
REMARK    8  A    between atoms: _20  and  _21
REMARK    9  A    between atoms: _20  and  _23
REMARK   10  A    between atoms: _23  and  _24
REMARK   11  A    between atoms: _27  and  _29
REMARK   12  A    between atoms: _29  and  _30
REMARK   13  A    between atoms: _29  and  _32
REMARK   14  A    between atoms: _32  and  _33
REMARK   15  A    between atoms: _36  and  _38
REMARK   16  A    between atoms: _38  and  _39
REMARK   17  A    between atoms: _38  and  _41
REMARK   18  A    between atoms: _41  and  _42
REMARK   19  A    between atoms: _45  and  _47
REMARK   20  A    between atoms: _47  and  _48
REMARK   21  A    between atoms: _47  and  _50
REMARK   22  A    between atoms: _50  and  _51
REMARK   23  A    between atoms: _54  and  _56
REMARK   24  A    between atoms: _56  and  _57
REMARK   25  A    between atoms: _59  and  _61
REMARK   26  A    between atoms: _61  and  _62
REMARK   27  A    between atoms: _65  and  _67
REMARK   28  A    between atoms: _67  and  _68
REMARK   29  A    between atoms: _67  and  _70
REMARK   30  A    between atoms: _70  and  _71
REMARK   31  A    between atoms: _74  and  _76
REMARK   32  A    between atoms: _76  and  _77
REMARK   33  A    between atoms: _76  and  _79
REMARK   34  A    between atoms: _79  and  _80
REMARK   35  A    between atoms: _83  and  _85
REMARK   36  A    between atoms: _85  and  _86
REMARK   37  A    between atoms: _85  and  _88
REMARK   38  A    between atoms: _88  and  _89
REMARK   39  A    between atoms: _92  and  _94
REMARK   40  A    between atoms: _94  and  _95
REMARK   41  A    between atoms: _94  and  _97
REMARK   42  A    between atoms: _100  and  _102
REMARK   43  A    between atoms: _102  and  _103
REMARK   44  A    between atoms: _102  and  _105
REMARK   45  A    between atoms: _105  and  _106
REMARK   46  A    between atoms: _109  and  _111
REMARK   47  A    between atoms: _111  and  _112
REMARK   48  A    between atoms: _111  and  _114
REMARK   49  A    between atoms: _114  and  _115
REMARK   50  A    between atoms: _115  and  _116
REMARK   51  A    between atoms: _116  and  _117
REMARK   52  A    between atoms: _117  and  _118
REMARK   53  A    between atoms: _122  and  _124
REMARK   54  A    between atoms: _124  and  _125
REMARK   55  A    between atoms: _124  and  _127
REMARK   56  A    between atoms: _127  and  _128
REMARK   57  A    between atoms: _128  and  _129
REMARK   58  A    between atoms: _131  and  _133
REMARK   59  A    between atoms: _133  and  _134
REMARK   60  A    between atoms: _133  and  _136
REMARK   61  A    between atoms: _136  and  _137
REMARK   62  A    between atoms: _140  and  _142
REMARK   63  A    between atoms: _142  and  _143
REMARK   64  A    between atoms: _145  and  _147
REMARK   65  A    between atoms: _147  and  _148
REMARK   66  A    between atoms: _150  and  _152
REMARK   67  A    between atoms: _152  and  _153
REMARK   68  A    between atoms: _152  and  _155
REMARK   69  A    between atoms: _155  and  _156
REMARK   70  A    between atoms: _159  and  _161
REMARK   71  A    between atoms: _161  and  _162
REMARK   72  A    between atoms: _164  and  _166
REMARK   73  A    between atoms: _166  and  _167
REMARK   74  A    between atoms: _169  and  _171
REMARK   75  A    between atoms: _171  and  _172
REMARK   76  A    between atoms: _171  and  _174
REMARK   77  A    between atoms: _174  and  _175
REMARK   78  A    between atoms: _181  and  _183
REMARK   79  A    between atoms: _183  and  _184
REMARK   80  A    between atoms: _183  and  _186
REMARK   81  A    between atoms: _186  and  _187
REMARK   82  A    between atoms: _190  and  _192
REMARK   83  A    between atoms: _192  and  _193
REMARK   84  A    between atoms: _192  and  _195
REMARK   85  A    between atoms: _195  and  _196
REMARK   86  A    between atoms: _200  and  _201
REMARK   87  A    between atoms: _206  and  _208
REMARK   88  A    between atoms: _208  and  _209
REMARK   89  A    between atoms: _208  and  _211
REMARK   90  A    between atoms: _211  and  _212
REMARK   91  A    between atoms: _216  and  _217
REMARK   92  A    between atoms: _222  and  _224
REMARK   93  A    between atoms: _224  and  _225
REMARK   94  A    between atoms: _224  and  _227
REMARK   95  A    between atoms: _227  and  _228
REMARK   96  A    between atoms: _234  and  _236
REMARK   97  A    between atoms: _236  and  _237
REMARK   98  A    between atoms: _236  and  _239
REMARK   99  A    between atoms: _239  and  _240
REMARK  100  A    between atoms: _245  and  _247
REMARK  101  A    between atoms: _247  and  _248
REMARK  102  A    between atoms: _247  and  _250
REMARK  103  A    between atoms: _253  and  _255
REMARK  104  A    between atoms: _255  and  _256
REMARK  105  A    between atoms: _255  and  _258
REMARK  106  A    between atoms: _258  and  _259
REMARK  107  A    between atoms: _262  and  _264
REMARK  108  A    between atoms: _264  and  _265
REMARK  109  A    between atoms: _267  and  _269
REMARK  110  A    between atoms: _269  and  _270
REMARK  111  A    between atoms: _269  and  _272
REMARK  112  A    between atoms: _272  and  _273
REMARK  113  A    between atoms: _273  and  _274
REMARK  114  A    between atoms: _274  and  _275
REMARK  115  A    between atoms: _284  and  _286
REMARK  116  A    between atoms: _286  and  _287
REMARK  117  A    between atoms: _286  and  _289
REMARK  118  A    between atoms: _289  and  _290
REMARK  119  A    between atoms: _295  and  _297
REMARK  120  A    between atoms: _297  and  _298
REMARK  121  A    between atoms: _297  and  _300
REMARK  122  A    between atoms: _300  and  _301
REMARK  123  A    between atoms: _301  and  _302
REMARK  124  A    between atoms: _302  and  _303
REMARK  125  A    between atoms: _312  and  _314
REMARK  126  A    between atoms: _314  and  _315
REMARK  127  A    between atoms: _314  and  _317
REMARK  128  A    between atoms: _317  and  _318
REMARK  129  A    between atoms: _321  and  _323
REMARK  130  A    between atoms: _323  and  _324
REMARK  131  A    between atoms: _323  and  _326
REMARK  132  A    between atoms: _326  and  _327
REMARK  133  A    between atoms: _330  and  _332
REMARK  134  A    between atoms: _332  and  _333
REMARK  135  A    between atoms: _332  and  _335
REMARK  136  A    between atoms: _335  and  _336
REMARK  137  A    between atoms: _339  and  _341
REMARK  138  A    between atoms: _341  and  _342
REMARK  139  A    between atoms: _341  and  _344
REMARK  140  A    between atoms: _344  and  _345
REMARK  141  A    between atoms: _348  and  _350
REMARK  142  A    between atoms: _350  and  _351
REMARK  143  A    between atoms: _353  and  _355
REMARK  144  A    between atoms: _355  and  _356
REMARK  145  A    between atoms: _359  and  _361
REMARK  146  A    between atoms: _361  and  _362
REMARK  147  A    between atoms: _361  and  _364
REMARK  148  A    between atoms: _364  and  _365
REMARK  149  A    between atoms: _368  and  _370
REMARK  150  A    between atoms: _370  and  _371
REMARK  151  A    between atoms: _370  and  _373
REMARK  152  A    between atoms: _373  and  _374
REMARK  153  A    between atoms: _377  and  _379
REMARK  154  A    between atoms: _379  and  _380
REMARK  155  A    between atoms: _379  and  _382
REMARK  156  A    between atoms: _382  and  _383
REMARK  157  A    between atoms: _386  and  _388
REMARK  158  A    between atoms: _388  and  _389
REMARK  159  A    between atoms: _388  and  _391
REMARK  160  A    between atoms: _394  and  _396
REMARK  161  A    between atoms: _396  and  _397
REMARK  162  A    between atoms: _396  and  _399
REMARK  163  A    between atoms: _399  and  _400
REMARK  164  A    between atoms: _403  and  _405
REMARK  165  A    between atoms: _405  and  _406
REMARK  166  A    between atoms: _405  and  _408
REMARK  167  A    between atoms: _408  and  _409
REMARK  168  A    between atoms: _409  and  _410
REMARK  169  A    between atoms: _410  and  _411
REMARK  170  A    between atoms: _411  and  _412
REMARK  171  A    between atoms: _416  and  _418
REMARK  172  A    between atoms: _418  and  _419
REMARK  173  A    between atoms: _418  and  _421
REMARK  174  A    between atoms: _421  and  _422
REMARK  175  A    between atoms: _422  and  _423
REMARK  176  A    between atoms: _425  and  _427
REMARK  177  A    between atoms: _427  and  _428
REMARK  178  A    between atoms: _427  and  _430
REMARK  179  A    between atoms: _430  and  _431
REMARK  180  A    between atoms: _434  and  _436
REMARK  181  A    between atoms: _436  and  _437
REMARK  182  A    between atoms: _439  and  _441
REMARK  183  A    between atoms: _441  and  _442
REMARK  184  A    between atoms: _444  and  _446
REMARK  185  A    between atoms: _446  and  _447
REMARK  186  A    between atoms: _446  and  _449
REMARK  187  A    between atoms: _449  and  _450
REMARK  188  A    between atoms: _453  and  _455
REMARK  189  A    between atoms: _455  and  _456
REMARK  190  A    between atoms: _458  and  _460
REMARK  191  A    between atoms: _460  and  _461
REMARK  192  A    between atoms: _463  and  _465
REMARK  193  A    between atoms: _465  and  _466
REMARK  194  A    between atoms: _465  and  _468
REMARK  195  A    between atoms: _468  and  _469
REMARK  196  A    between atoms: _475  and  _477
REMARK  197  A    between atoms: _477  and  _478
REMARK  198  A    between atoms: _477  and  _480
REMARK  199  A    between atoms: _480  and  _481
REMARK  200  A    between atoms: _484  and  _486
REMARK  201  A    between atoms: _486  and  _487
REMARK  202  A    between atoms: _486  and  _489
REMARK  203  A    between atoms: _489  and  _490
REMARK  204  A    between atoms: _494  and  _495
REMARK  205  A    between atoms: _500  and  _502
REMARK  206  A    between atoms: _502  and  _503
REMARK  207  A    between atoms: _502  and  _505
REMARK  208  A    between atoms: _505  and  _506
REMARK  209  A    between atoms: _510  and  _511
REMARK  210  A    between atoms: _516  and  _518
REMARK  211  A    between atoms: _518  and  _519
REMARK  212  A    between atoms: _518  and  _521
REMARK  213  A    between atoms: _521  and  _522
REMARK  214  A    between atoms: _528  and  _530
REMARK  215  A    between atoms: _530  and  _531
REMARK  216  A    between atoms: _530  and  _533
REMARK  217  A    between atoms: _533  and  _534
REMARK  218  A    between atoms: _539  and  _541
REMARK  219  A    between atoms: _541  and  _542
REMARK  220  A    between atoms: _541  and  _544
REMARK  221  A    between atoms: _547  and  _549
REMARK  222  A    between atoms: _549  and  _550
REMARK  223  A    between atoms: _549  and  _552
REMARK  224  A    between atoms: _552  and  _553
REMARK  225  A    between atoms: _556  and  _558
REMARK  226  A    between atoms: _558  and  _559
REMARK  227  A    between atoms: _561  and  _563
REMARK  228  A    between atoms: _563  and  _564
REMARK  229  A    between atoms: _563  and  _566
REMARK  230  A    between atoms: _566  and  _567
REMARK  231  A    between atoms: _567  and  _568
REMARK  232  A    between atoms: _568  and  _569
REMARK  233  A    between atoms: _578  and  _580
REMARK  234  A    between atoms: _580  and  _581
REMARK  235  A    between atoms: _580  and  _583
REMARK  236  A    between atoms: _583  and  _584
REMARK                            x       y       z     vdW  Elec       q    Type
REMARK                         _______ _______ _______ _____ _____    ______ ____
ROOT
ATOM      1  O   HOH     1     -16.174  20.363  39.046  0.00  0.00    +0.000 OA
ENDROOT
TORSDOF 0
REMARK  Name = ../refined-set-2016/1bwa/1bwa_pocket.pdb
REMARK  236 active torsions:
REMARK  status: ('A' for Active; 'I' for Inactive)
REMARK    1  A    between atoms: _1  and  _3
REMARK    2  A    between atoms: _3  and  _4
REMARK    3  A    between atoms: _3  and  _6
REMARK    4  A    between atoms: _6  and  _7
REMARK    5  A    between atoms: _7  and  _8
REMARK    6  A    between atoms: _8  and  _9
REMARK    7  A    between atoms: _18  and  _20
REMARK    8  A    between atoms: _20  and  _21
REMARK    9  A    between atoms: _20  and  _23
REMARK   10  A    between atoms: _23  and  _24
REMARK   11  A    between atoms: _27  and  _29
REMARK   12  A    between atoms: _29  and  _30
REMARK   13  A    between atoms: _29  and  _32
REMARK   14  A    between atoms: _32  and  _33
REMARK   15  A    between atoms: _36  and  _38
REMARK   16  A    between atoms: _38  and  _39
REMARK   17  A    between atoms: _38  and  _41
REMARK   18  A    between atoms: _41  and  _42
REMARK   19  A    between atoms: _45  and  _47
REMARK   20  A    between atoms: _47  and  _48
REMARK   21  A    between atoms: _47  and  _50
REMARK   22  A    between atoms: _50  and  _51
REMARK   23  A    between atoms: _54  and  _56
REMARK   24  A    between atoms: _56  and  _57
REMARK   25  A    between atoms: _59  and  _61
REMARK   26  A    between atoms: _61  and  _62
REMARK   27  A    between atoms: _65  and  _67
REMARK   28  A    between atoms: _67  and  _68
REMARK   29  A    between atoms: _67  and  _70
REMARK   30  A    between atoms: _70  and  _71
REMARK   31  A    between atoms: _74  and  _76
REMARK   32  A    between atoms: _76  and  _77
REMARK   33  A    between atoms: _76  and  _79
REMARK   34  A    between atoms: _79  and  _80
REMARK   35  A    between atoms: _83  and  _85
REMARK   36  A    between atoms: _85  and  _86
REMARK   37  A    between atoms: _85  and  _88
REMARK   38  A    between atoms: _88  and  _89
REMARK   39  A    between atoms: _92  and  _94
REMARK   40  A    between atoms: _94  and  _95
REMARK   41  A    between atoms: _94  and  _97
REMARK   42  A    between atoms: _100  and  _102
REMARK   43  A    between atoms: _102  and  _103
REMARK   44  A    between atoms: _102  and  _105
REMARK   45  A    between atoms: _105  and  _106
REMARK   46  A    between atoms: _109  and  _111
REMARK   47  A    between atoms: _111  and  _112
REMARK   48  A    between atoms: _111  and  _114
REMARK   49  A    between atoms: _114  and  _115
REMARK   50  A    between atoms: _115  and  _116
REMARK   51  A    between atoms: _116  and  _117
REMARK   52  A    between atoms: _117  and  _118
REMARK   53  A    between atoms: _122  and  _124
REMARK   54  A    between atoms: _124  and  _125
REMARK   55  A    between atoms: _124  and  _127
REMARK   56  A    between atoms: _127  and  _128
REMARK   57  A    between atoms: _128  and  _129
REMARK   58  A    between atoms: _131  and  _133
REMARK   59  A    between atoms: _133  and  _134
REMARK   60  A    between atoms: _133  and  _136
REMARK   61  A    between atoms: _136  and  _137
REMARK   62  A    between atoms: _140  and  _142
REMARK   63  A    between atoms: _142  and  _143
REMARK   64  A    between atoms: _145  and  _147
REMARK   65  A    between atoms: _147  and  _148
REMARK   66  A    between atoms: _150  and  _152
REMARK   67  A    between atoms: _152  and  _153
REMARK   68  A    between atoms: _152  and  _155
REMARK   69  A    between atoms: _155  and  _156
REMARK   70  A    between atoms: _159  and  _161
REMARK   71  A    between atoms: _161  and  _162
REMARK   72  A    between atoms: _164  and  _166
REMARK   73  A    between atoms: _166  and  _167
REMARK   74  A    between atoms: _169  and  _171
REMARK   75  A    between atoms: _171  and  _172
REMARK   76  A    between atoms: _171  and  _174
REMARK   77  A    between atoms: _174  and  _175
REMARK   78  A    between atoms: _181  and  _183
REMARK   79  A    between atoms: _183  and  _184
REMARK   80  A    between atoms: _183  and  _186
REMARK   81  A    between atoms: _186  and  _187
REMARK   82  A    between atoms: _190  and  _192
REMARK   83  A    between atoms: _192  and  _193
REMARK   84  A    between atoms: _192  and  _195
REMARK   85  A    between atoms: _195  and  _196
REMARK   86  A    between atoms: _200  and  _201
REMARK   87  A    between atoms: _206  and  _208
REMARK   88  A    between atoms: _208  and  _209
REMARK   89  A    between atoms: _208  and  _211
REMARK   90  A    between atoms: _211  and  _212
REMARK   91  A    between atoms: _216  and  _217
REMARK   92  A    between atoms: _222  and  _224
REMARK   93  A    between atoms: _224  and  _225
REMARK   94  A    between atoms: _224  and  _227
REMARK   95  A    between atoms: _227  and  _228
REMARK   96  A    between atoms: _234  and  _236
REMARK   97  A    between atoms: _236  and  _237
REMARK   98  A    between atoms: _236  and  _239
REMARK   99  A    between atoms: _239  and  _240
REMARK  100  A    between atoms: _245  and  _247
REMARK  101  A    between atoms: _247  and  _248
REMARK  102  A    between atoms: _247  and  _250
REMARK  103  A    between atoms: _253  and  _255
REMARK  104  A    between atoms: _255  and  _256
REMARK  105  A    between atoms: _255  and  _258
REMARK  106  A    between atoms: _258  and  _259
REMARK  107  A    between atoms: _262  and  _264
REMARK  108  A    between atoms: _264  and  _265
REMARK  109  A    between atoms: _267  and  _269
REMARK  110  A    between atoms: _269  and  _270
REMARK  111  A    between atoms: _269  and  _272
REMARK  112  A    between atoms: _272  and  _273
REMARK  113  A    between atoms: _273  and  _274
REMARK  114  A    between atoms: _274  and  _275
REMARK  115  A    between atoms: _284  and  _286
REMARK  116  A    between atoms: _286  and  _287
REMARK  117  A    between atoms: _286  and  _289
REMARK  118  A    between atoms: _289  and  _290
REMARK  119  A    between atoms: _295  and  _297
REMARK  120  A    between atoms: _297  and  _298
REMARK  121  A    between atoms: _297  and  _300
REMARK  122  A    between atoms: _300  and  _301
REMARK  123  A    between atoms: _301  and  _302
REMARK  124  A    between atoms: _302  and  _303
REMARK  125  A    between atoms: _312  and  _314
REMARK  126  A    between atoms: _314  and  _315
REMARK  127  A    between atoms: _314  and  _317
REMARK  128  A    between atoms: _317  and  _318
REMARK  129  A    between atoms: _321  and  _323
REMARK  130  A    between atoms: _323  and  _324
REMARK  131  A    between atoms: _323  and  _326
REMARK  132  A    between atoms: _326  and  _327
REMARK  133  A    between atoms: _330  and  _332
REMARK  134  A    between atoms: _332  and  _333
REMARK  135  A    between atoms: _332  and  _335
REMARK  136  A    between atoms: _335  and  _336
REMARK  137  A    between atoms: _339  and  _341
REMARK  138  A    between atoms: _341  and  _342
REMARK  139  A    between atoms: _341  and  _344
REMARK  140  A    between atoms: _344  and  _345
REMARK  141  A    between atoms: _348  and  _350
REMARK  142  A    between atoms: _350  and  _351
REMARK  143  A    between atoms: _353  and  _355
REMARK  144  A    between atoms: _355  and  _356
REMARK  145  A    between atoms: _359  and  _361
REMARK  146  A    between atoms: _361  and  _362
REMARK  147  A    between atoms: _361  and  _364
REMARK  148  A    between atoms: _364  and  _365
REMARK  149  A    between atoms: _368  and  _370
REMARK  150  A    between atoms: _370  and  _371
REMARK  151  A    between atoms: _370  and  _373
REMARK  152  A    between atoms: _373  and  _374
REMARK  153  A    between atoms: _377  and  _379
REMARK  154  A    between atoms: _379  and  _380
REMARK  155  A    between atoms: _379  and  _382
REMARK  156  A    between atoms: _382  and  _383
REMARK  157  A    between atoms: _386  and  _388
REMARK  158  A    between atoms: _388  and  _389
REMARK  159  A    between atoms: _388  and  _391
REMARK  160  A    between atoms: _394  and  _396
REMARK  161  A    between atoms: _396  and  _397
REMARK  162  A    between atoms: _396  and  _399
REMARK  163  A    between atoms: _399  and  _400
REMARK  164  A    between atoms: _403  and  _405
REMARK  165  A    between atoms: _405  and  _406
REMARK  166  A    between atoms: _405  and  _408
REMARK  167  A    between atoms: _408  and  _409
REMARK  168  A    between atoms: _409  and  _410
REMARK  169  A    between atoms: _410  and  _411
REMARK  170  A    between atoms: _411  and  _412
REMARK  171  A    between atoms: _416  and  _418
REMARK  172  A    between atoms: _418  and  _419
REMARK  173  A    between atoms: _418  and  _421
REMARK  174  A    between atoms: _421  and  _422
REMARK  175  A    between atoms: _422  and  _423
REMARK  176  A    between atoms: _425  and  _427
REMARK  177  A    between atoms: _427  and  _428
REMARK  178  A    between atoms: _427  and  _430
REMARK  179  A    between atoms: _430  and  _431
REMARK  180  A    between atoms: _434  and  _436
REMARK  181  A    between atoms: _436  and  _437
REMARK  182  A    between atoms: _439  and  _441
REMARK  183  A    between atoms: _441  and  _442
REMARK  184  A    between atoms: _444  and  _446
REMARK  185  A    between atoms: _446  and  _447
REMARK  186  A    between atoms: _446  and  _449
REMARK  187  A    between atoms: _449  and  _450
REMARK  188  A    between atoms: _453  and  _455
REMARK  189  A    between atoms: _455  and  _456
REMARK  190  A    between atoms: _458  and  _460
REMARK  191  A    between atoms: _460  and  _461
REMARK  192  A    between atoms: _463  and  _465
REMARK  193  A    between atoms: _465  and  _466
REMARK  194  A    between atoms: _465  and  _468
REMARK  195  A    between atoms: _468  and  _469
REMARK  196  A    between atoms: _475  and  _477
REMARK  197  A    between atoms: _477  and  _478
REMARK  198  A    between atoms: _477  and  _480
REMARK  199  A    between atoms: _480  and  _481
REMARK  200  A    between atoms: _484  and  _486
REMARK  201  A    between atoms: _486  and  _487
REMARK  202  A    between atoms: _486  and  _489
REMARK  203  A    between atoms: _489  and  _490
REMARK  204  A    between atoms: _494  and  _495
REMARK  205  A    between atoms: _500  and  _502
REMARK  206  A    between atoms: _502  and  _503
REMARK  207  A    between atoms: _502  and  _505
REMARK  208  A    between atoms: _505  and  _506
REMARK  209  A    between atoms: _510  and  _511
REMARK  210  A    between atoms: _516  and  _518
REMARK  211  A    between atoms: _518  and  _519
REMARK  212  A    between atoms: _518  and  _521
REMARK  213  A    between atoms: _521  and  _522
REMARK  214  A    between atoms: _528  and  _530
REMARK  215  A    between atoms: _530  and  _531
REMARK  216  A    between atoms: _530  and  _533
REMARK  217  A    between atoms: _533  and  _534
REMARK  218  A    between atoms: _539  and  _541
REMARK  219  A    between atoms: _541  and  _542
REMARK  220  A    between atoms: _541  and  _544
REMARK  221  A    between atoms: _547  and  _549
REMARK  222  A    between atoms: _549  and  _550
REMARK  223  A    between atoms: _549  and  _552
REMARK  224  A    between atoms: _552  and  _553
REMARK  225  A    between atoms: _556  and  _558
REMARK  226  A    between atoms: _558  and  _559
REMARK  227  A    between atoms: _561  and  _563
REMARK  228  A    between atoms: _563  and  _564
REMARK  229  A    between atoms: _563  and  _566
REMARK  230  A    between atoms: _566  and  _567
REMARK  231  A    between atoms: _567  and  _568
REMARK  232  A    between atoms: _568  and  _569
REMARK  233  A    between atoms: _578  and  _580
REMARK  234  A    between atoms: _580  and  _581
REMARK  235  A    between atoms: _580  and  _583
REMARK  236  A    between atoms: _583  and  _584
REMARK                            x       y       z     vdW  Elec       q    Type
REMARK                         _______ _______ _______ _____ _____    ______ ____
ROOT
ATOM      1  O   HOH     1     -17.163  18.986  32.614  0.00  0.00    +0.000 OA
ENDROOT
TORSDOF 0
REMARK  Name = ../refined-set-2016/1bwa/1bwa_pocket.pdb
REMARK  236 active torsions:
REMARK  status: ('A' for Active; 'I' for Inactive)
REMARK    1  A    between atoms: _1  and  _3
REMARK    2  A    between atoms: _3  and  _4
REMARK    3  A    between atoms: _3  and  _6
REMARK    4  A    between atoms: _6  and  _7
REMARK    5  A    between atoms: _7  and  _8
REMARK    6  A    between atoms: _8  and  _9
REMARK    7  A    between atoms: _18  and  _20
REMARK    8  A    between atoms: _20  and  _21
REMARK    9  A    between atoms: _20  and  _23
REMARK   10  A    between atoms: _23  and  _24
REMARK   11  A    between atoms: _27  and  _29
REMARK   12  A    between atoms: _29  and  _30
REMARK   13  A    between atoms: _29  and  _32
REMARK   14  A    between atoms: _32  and  _33
REMARK   15  A    between atoms: _36  and  _38
REMARK   16  A    between atoms: _38  and  _39
REMARK   17  A    between atoms: _38  and  _41
REMARK   18  A    between atoms: _41  and  _42
REMARK   19  A    between atoms: _45  and  _47
REMARK   20  A    between atoms: _47  and  _48
REMARK   21  A    between atoms: _47  and  _50
REMARK   22  A    between atoms: _50  and  _51
REMARK   23  A    between atoms: _54  and  _56
REMARK   24  A    between atoms: _56  and  _57
REMARK   25  A    between atoms: _59  and  _61
REMARK   26  A    between atoms: _61  and  _62
REMARK   27  A    between atoms: _65  and  _67
REMARK   28  A    between atoms: _67  and  _68
REMARK   29  A    between atoms: _67  and  _70
REMARK   30  A    between atoms: _70  and  _71
REMARK   31  A    between atoms: _74  and  _76
REMARK   32  A    between atoms: _76  and  _77
REMARK   33  A    between atoms: _76  and  _79
REMARK   34  A    between atoms: _79  and  _80
REMARK   35  A    between atoms: _83  and  _85
REMARK   36  A    between atoms: _85  and  _86
REMARK   37  A    between atoms: _85  and  _88
REMARK   38  A    between atoms: _88  and  _89
REMARK   39  A    between atoms: _92  and  _94
REMARK   40  A    between atoms: _94  and  _95
REMARK   41  A    between atoms: _94  and  _97
REMARK   42  A    between atoms: _100  and  _102
REMARK   43  A    between atoms: _102  and  _103
REMARK   44  A    between atoms: _102  and  _105
REMARK   45  A    between atoms: _105  and  _106
REMARK   46  A    between atoms: _109  and  _111
REMARK   47  A    between atoms: _111  and  _112
REMARK   48  A    between atoms: _111  and  _114
REMARK   49  A    between atoms: _114  and  _115
REMARK   50  A    between atoms: _115  and  _116
REMARK   51  A    between atoms: _116  and  _117
REMARK   52  A    between atoms: _117  and  _118
REMARK   53  A    between atoms: _122  and  _124
REMARK   54  A    between atoms: _124  and  _125
REMARK   55  A    between atoms: _124  and  _127
REMARK   56  A    between atoms: _127  and  _128
REMARK   57  A    between atoms: _128  and  _129
REMARK   58  A    between atoms: _131  and  _133
REMARK   59  A    between atoms: _133  and  _134
REMARK   60  A    between atoms: _133  and  _136
REMARK   61  A    between atoms: _136  and  _137
REMARK   62  A    between atoms: _140  and  _142
REMARK   63  A    between atoms: _142  and  _143
REMARK   64  A    between atoms: _145  and  _147
REMARK   65  A    between atoms: _147  and  _148
REMARK   66  A    between atoms: _150  and  _152
REMARK   67  A    between atoms: _152  and  _153
REMARK   68  A    between atoms: _152  and  _155
REMARK   69  A    between atoms: _155  and  _156
REMARK   70  A    between atoms: _159  and  _161
REMARK   71  A    between atoms: _161  and  _162
REMARK   72  A    between atoms: _164  and  _166
REMARK   73  A    between atoms: _166  and  _167
REMARK   74  A    between atoms: _169  and  _171
REMARK   75  A    between atoms: _171  and  _172
REMARK   76  A    between atoms: _171  and  _174
REMARK   77  A    between atoms: _174  and  _175
REMARK   78  A    between atoms: _181  and  _183
REMARK   79  A    between atoms: _183  and  _184
REMARK   80  A    between atoms: _183  and  _186
REMARK   81  A    between atoms: _186  and  _187
REMARK   82  A    between atoms: _190  and  _192
REMARK   83  A    between atoms: _192  and  _193
REMARK   84  A    between atoms: _192  and  _195
REMARK   85  A    between atoms: _195  and  _196
REMARK   86  A    between atoms: _200  and  _201
REMARK   87  A    between atoms: _206  and  _208
REMARK   88  A    between atoms: _208  and  _209
REMARK   89  A    between atoms: _208  and  _211
REMARK   90  A    between atoms: _211  and  _212
REMARK   91  A    between atoms: _216  and  _217
REMARK   92  A    between atoms: _222  and  _224
REMARK   93  A    between atoms: _224  and  _225
REMARK   94  A    between atoms: _224  and  _227
REMARK   95  A    between atoms: _227  and  _228
REMARK   96  A    between atoms: _234  and  _236
REMARK   97  A    between atoms: _236  and  _237
REMARK   98  A    between atoms: _236  and  _239
REMARK   99  A    between atoms: _239  and  _240
REMARK  100  A    between atoms: _245  and  _247
REMARK  101  A    between atoms: _247  and  _248
REMARK  102  A    between atoms: _247  and  _250
REMARK  103  A    between atoms: _253  and  _255
REMARK  104  A    between atoms: _255  and  _256
REMARK  105  A    between atoms: _255  and  _258
REMARK  106  A    between atoms: _258  and  _259
REMARK  107  A    between atoms: _262  and  _264
REMARK  108  A    between atoms: _264  and  _265
REMARK  109  A    between atoms: _267  and  _269
REMARK  110  A    between atoms: _269  and  _270
REMARK  111  A    between atoms: _269  and  _272
REMARK  112  A    between atoms: _272  and  _273
REMARK  113  A    between atoms: _273  and  _274
REMARK  114  A    between atoms: _274  and  _275
REMARK  115  A    between atoms: _284  and  _286
REMARK  116  A    between atoms: _286  and  _287
REMARK  117  A    between atoms: _286  and  _289
REMARK  118  A    between atoms: _289  and  _290
REMARK  119  A    between atoms: _295  and  _297
REMARK  120  A    between atoms: _297  and  _298
REMARK  121  A    between atoms: _297  and  _300
REMARK  122  A    between atoms: _300  and  _301
REMARK  123  A    between atoms: _301  and  _302
REMARK  124  A    between atoms: _302  and  _303
REMARK  125  A    between atoms: _312  and  _314
REMARK  126  A    between atoms: _314  and  _315
REMARK  127  A    between atoms: _314  and  _317
REMARK  128  A    between atoms: _317  and  _318
REMARK  129  A    between atoms: _321  and  _323
REMARK  130  A    between atoms: _323  and  _324
REMARK  131  A    between atoms: _323  and  _326
REMARK  132  A    between atoms: _326  and  _327
REMARK  133  A    between atoms: _330  and  _332
REMARK  134  A    between atoms: _332  and  _333
REMARK  135  A    between atoms: _332  and  _335
REMARK  136  A    between atoms: _335  and  _336
REMARK  137  A    between atoms: _339  and  _341
REMARK  138  A    between atoms: _341  and  _342
REMARK  139  A    between atoms: _341  and  _344
REMARK  140  A    between atoms: _344  and  _345
REMARK  141  A    between atoms: _348  and  _350
REMARK  142  A    between atoms: _350  and  _351
REMARK  143  A    between atoms: _353  and  _355
REMARK  144  A    between atoms: _355  and  _356
REMARK  145  A    between atoms: _359  and  _361
REMARK  146  A    between atoms: _361  and  _362
REMARK  147  A    between atoms: _361  and  _364
REMARK  148  A    between atoms: _364  and  _365
REMARK  149  A    between atoms: _368  and  _370
REMARK  150  A    between atoms: _370  and  _371
REMARK  151  A    between atoms: _370  and  _373
REMARK  152  A    between atoms: _373  and  _374
REMARK  153  A    between atoms: _377  and  _379
REMARK  154  A    between atoms: _379  and  _380
REMARK  155  A    between atoms: _379  and  _382
REMARK  156  A    between atoms: _382  and  _383
REMARK  157  A    between atoms: _386  and  _388
REMARK  158  A    between atoms: _388  and  _389
REMARK  159  A    between atoms: _388  and  _391
REMARK  160  A    between atoms: _394  and  _396
REMARK  161  A    between atoms: _396  and  _397
REMARK  162  A    between atoms: _396  and  _399
REMARK  163  A    between atoms: _399  and  _400
REMARK  164  A    between atoms: _403  and  _405
REMARK  165  A    between atoms: _405  and  _406
REMARK  166  A    between atoms: _405  and  _408
REMARK  167  A    between atoms: _408  and  _409
REMARK  168  A    between atoms: _409  and  _410
REMARK  169  A    between atoms: _410  and  _411
REMARK  170  A    between atoms: _411  and  _412
REMARK  171  A    between atoms: _416  and  _418
REMARK  172  A    between atoms: _418  and  _419
REMARK  173  A    between atoms: _418  and  _421
REMARK  174  A    between atoms: _421  and  _422
REMARK  175  A    between atoms: _422  and  _423
REMARK  176  A    between atoms: _425  and  _427
REMARK  177  A    between atoms: _427  and  _428
REMARK  178  A    between atoms: _427  and  _430
REMARK  179  A    between atoms: _430  and  _431
REMARK  180  A    between atoms: _434  and  _436
REMARK  181  A    between atoms: _436  and  _437
REMARK  182  A    between atoms: _439  and  _441
REMARK  183  A    between atoms: _441  and  _442
REMARK  184  A    between atoms: _444  and  _446
REMARK  185  A    between atoms: _446  and  _447
REMARK  186  A    between atoms: _446  and  _449
REMARK  187  A    between atoms: _449  and  _450
REMARK  188  A    between atoms: _453  and  _455
REMARK  189  A    between atoms: _455  and  _456
REMARK  190  A    between atoms: _458  and  _460
REMARK  191  A    between atoms: _460  and  _461
REMARK  192  A    between atoms: _463  and  _465
REMARK  193  A    between atoms: _465  and  _466
REMARK  194  A    between atoms: _465  and  _468
REMARK  195  A    between atoms: _468  and  _469
REMARK  196  A    between atoms: _475  and  _477
REMARK  197  A    between atoms: _477  and  _478
REMARK  198  A    between atoms: _477  and  _480
REMARK  199  A    between atoms: _480  and  _481
REMARK  200  A    between atoms: _484  and  _486
REMARK  201  A    between atoms: _486  and  _487
REMARK  202  A    between atoms: _486  and  _489
REMARK  203  A    between atoms: _489  and  _490
REMARK  204  A    between atoms: _494  and  _495
REMARK  205  A    between atoms: _500  and  _502
REMARK  206  A    between atoms: _502  and  _503
REMARK  207  A    between atoms: _502  and  _505
REMARK  208  A    between atoms: _505  and  _506
REMARK  209  A    between atoms: _510  and  _511
REMARK  210  A    between atoms: _516  and  _518
REMARK  211  A    between atoms: _518  and  _519
REMARK  212  A    between atoms: _518  and  _521
REMARK  213  A    between atoms: _521  and  _522
REMARK  214  A    between atoms: _528  and  _530
REMARK  215  A    between atoms: _530  and  _531
REMARK  216  A    between atoms: _530  and  _533
REMARK  217  A    between atoms: _533  and  _534
REMARK  218  A    between atoms: _539  and  _541
REMARK  219  A    between atoms: _541  and  _542
REMARK  220  A    between atoms: _541  and  _544
REMARK  221  A    between atoms: _547  and  _549
REMARK  222  A    between atoms: _549  and  _550
REMARK  223  A    between atoms: _549  and  _552
REMARK  224  A    between atoms: _552  and  _553
REMARK  225  A    between atoms: _556  and  _558
REMARK  226  A    between atoms: _558  and  _559
REMARK  227  A    between atoms: _561  and  _563
REMARK  228  A    between atoms: _563  and  _564
REMARK  229  A    between atoms: _563  and  _566
REMARK  230  A    between atoms: _566  and  _567
REMARK  231  A    between atoms: _567  and  _568
REMARK  232  A    between atoms: _568  and  _569
REMARK  233  A    between atoms: _578  and  _580
REMARK  234  A    between atoms: _580  and  _581
REMARK  235  A    between atoms: _580  and  _583
REMARK  236  A    between atoms: _583  and  _584
REMARK                            x       y       z     vdW  Elec       q    Type
REMARK                         _______ _______ _______ _____ _____    ______ ____
ROOT
ATOM      1  O   HOH     1      -6.206  10.359  32.419  0.00  0.00    +0.000 OA
ENDROOT
TORSDOF 0
REMARK  Name = ../refined-set-2016/1bwa/1bwa_pocket.pdb
REMARK  236 active torsions:
REMARK  status: ('A' for Active; 'I' for Inactive)
REMARK    1  A    between atoms: _1  and  _3
REMARK    2  A    between atoms: _3  and  _4
REMARK    3  A    between atoms: _3  and  _6
REMARK    4  A    between atoms: _6  and  _7
REMARK    5  A    between atoms: _7  and  _8
REMARK    6  A    between atoms: _8  and  _9
REMARK    7  A    between atoms: _18  and  _20
REMARK    8  A    between atoms: _20  and  _21
REMARK    9  A    between atoms: _20  and  _23
REMARK   10  A    between atoms: _23  and  _24
REMARK   11  A    between atoms: _27  and  _29
REMARK   12  A    between atoms: _29  and  _30
REMARK   13  A    between atoms: _29  and  _32
REMARK   14  A    between atoms: _32  and  _33
REMARK   15  A    between atoms: _36  and  _38
REMARK   16  A    between atoms: _38  and  _39
REMARK   17  A    between atoms: _38  and  _41
REMARK   18  A    between atoms: _41  and  _42
REMARK   19  A    between atoms: _45  and  _47
REMARK   20  A    between atoms: _47  and  _48
REMARK   21  A    between atoms: _47  and  _50
REMARK   22  A    between atoms: _50  and  _51
REMARK   23  A    between atoms: _54  and  _56
REMARK   24  A    between atoms: _56  and  _57
REMARK   25  A    between atoms: _59  and  _61
REMARK   26  A    between atoms: _61  and  _62
REMARK   27  A    between atoms: _65  and  _67
REMARK   28  A    between atoms: _67  and  _68
REMARK   29  A    between atoms: _67  and  _70
REMARK   30  A    between atoms: _70  and  _71
REMARK   31  A    between atoms: _74  and  _76
REMARK   32  A    between atoms: _76  and  _77
REMARK   33  A    between atoms: _76  and  _79
REMARK   34  A    between atoms: _79  and  _80
REMARK   35  A    between atoms: _83  and  _85
REMARK   36  A    between atoms: _85  and  _86
REMARK   37  A    between atoms: _85  and  _88
REMARK   38  A    between atoms: _88  and  _89
REMARK   39  A    between atoms: _92  and  _94
REMARK   40  A    between atoms: _94  and  _95
REMARK   41  A    between atoms: _94  and  _97
REMARK   42  A    between atoms: _100  and  _102
REMARK   43  A    between atoms: _102  and  _103
REMARK   44  A    between atoms: _102  and  _105
REMARK   45  A    between atoms: _105  and  _106
REMARK   46  A    between atoms: _109  and  _111
REMARK   47  A    between atoms: _111  and  _112
REMARK   48  A    between atoms: _111  and  _114
REMARK   49  A    between atoms: _114  and  _115
REMARK   50  A    between atoms: _115  and  _116
REMARK   51  A    between atoms: _116  and  _117
REMARK   52  A    between atoms: _117  and  _118
REMARK   53  A    between atoms: _122  and  _124
REMARK   54  A    between atoms: _124  and  _125
REMARK   55  A    between atoms: _124  and  _127
REMARK   56  A    between atoms: _127  and  _128
REMARK   57  A    between atoms: _128  and  _129
REMARK   58  A    between atoms: _131  and  _133
REMARK   59  A    between atoms: _133  and  _134
REMARK   60  A    between atoms: _133  and  _136
REMARK   61  A    between atoms: _136  and  _137
REMARK   62  A    between atoms: _140  and  _142
REMARK   63  A    between atoms: _142  and  _143
REMARK   64  A    between atoms: _145  and  _147
REMARK   65  A    between atoms: _147  and  _148
REMARK   66  A    between atoms: _150  and  _152
REMARK   67  A    between atoms: _152  and  _153
REMARK   68  A    between atoms: _152  and  _155
REMARK   69  A    between atoms: _155  and  _156
REMARK   70  A    between atoms: _159  and  _161
REMARK   71  A    between atoms: _161  and  _162
REMARK   72  A    between atoms: _164  and  _166
REMARK   73  A    between atoms: _166  and  _167
REMARK   74  A    between atoms: _169  and  _171
REMARK   75  A    between atoms: _171  and  _172
REMARK   76  A    between atoms: _171  and  _174
REMARK   77  A    between atoms: _174  and  _175
REMARK   78  A    between atoms: _181  and  _183
REMARK   79  A    between atoms: _183  and  _184
REMARK   80  A    between atoms: _183  and  _186
REMARK   81  A    between atoms: _186  and  _187
REMARK   82  A    between atoms: _190  and  _192
REMARK   83  A    between atoms: _192  and  _193
REMARK   84  A    between atoms: _192  and  _195
REMARK   85  A    between atoms: _195  and  _196
REMARK   86  A    between atoms: _200  and  _201
REMARK   87  A    between atoms: _206  and  _208
REMARK   88  A    between atoms: _208  and  _209
REMARK   89  A    between atoms: _208  and  _211
REMARK   90  A    between atoms: _211  and  _212
REMARK   91  A    between atoms: _216  and  _217
REMARK   92  A    between atoms: _222  and  _224
REMARK   93  A    between atoms: _224  and  _225
REMARK   94  A    between atoms: _224  and  _227
REMARK   95  A    between atoms: _227  and  _228
REMARK   96  A    between atoms: _234  and  _236
REMARK   97  A    between atoms: _236  and  _237
REMARK   98  A    between atoms: _236  and  _239
REMARK   99  A    between atoms: _239  and  _240
REMARK  100  A    between atoms: _245  and  _247
REMARK  101  A    between atoms: _247  and  _248
REMARK  102  A    between atoms: _247  and  _250
REMARK  103  A    between atoms: _253  and  _255
REMARK  104  A    between atoms: _255  and  _256
REMARK  105  A    between atoms: _255  and  _258
REMARK  106  A    between atoms: _258  and  _259
REMARK  107  A    between atoms: _262  and  _264
REMARK  108  A    between atoms: _264  and  _265
REMARK  109  A    between atoms: _267  and  _269
REMARK  110  A    between atoms: _269  and  _270
REMARK  111  A    between atoms: _269  and  _272
REMARK  112  A    between atoms: _272  and  _273
REMARK  113  A    between atoms: _273  and  _274
REMARK  114  A    between atoms: _274  and  _275
REMARK  115  A    between atoms: _284  and  _286
REMARK  116  A    between atoms: _286  and  _287
REMARK  117  A    between atoms: _286  and  _289
REMARK  118  A    between atoms: _289  and  _290
REMARK  119  A    between atoms: _295  and  _297
REMARK  120  A    between atoms: _297  and  _298
REMARK  121  A    between atoms: _297  and  _300
REMARK  122  A    between atoms: _300  and  _301
REMARK  123  A    between atoms: _301  and  _302
REMARK  124  A    between atoms: _302  and  _303
REMARK  125  A    between atoms: _312  and  _314
REMARK  126  A    between atoms: _314  and  _315
REMARK  127  A    between atoms: _314  and  _317
REMARK  128  A    between atoms: _317  and  _318
REMARK  129  A    between atoms: _321  and  _323
REMARK  130  A    between atoms: _323  and  _324
REMARK  131  A    between atoms: _323  and  _326
REMARK  132  A    between atoms: _326  and  _327
REMARK  133  A    between atoms: _330  and  _332
REMARK  134  A    between atoms: _332  and  _333
REMARK  135  A    between atoms: _332  and  _335
REMARK  136  A    between atoms: _335  and  _336
REMARK  137  A    between atoms: _339  and  _341
REMARK  138  A    between atoms: _341  and  _342
REMARK  139  A    between atoms: _341  and  _344
REMARK  140  A    between atoms: _344  and  _345
REMARK  141  A    between atoms: _348  and  _350
REMARK  142  A    between atoms: _350  and  _351
REMARK  143  A    between atoms: _353  and  _355
REMARK  144  A    between atoms: _355  and  _356
REMARK  145  A    between atoms: _359  and  _361
REMARK  146  A    between atoms: _361  and  _362
REMARK  147  A    between atoms: _361  and  _364
REMARK  148  A    between atoms: _364  and  _365
REMARK  149  A    between atoms: _368  and  _370
REMARK  150  A    between atoms: _370  and  _371
REMARK  151  A    between atoms: _370  and  _373
REMARK  152  A    between atoms: _373  and  _374
REMARK  153  A    between atoms: _377  and  _379
REMARK  154  A    between atoms: _379  and  _380
REMARK  155  A    between atoms: _379  and  _382
REMARK  156  A    between atoms: _382  and  _383
REMARK  157  A    between atoms: _386  and  _388
REMARK  158  A    between atoms: _388  and  _389
REMARK  159  A    between atoms: _388  and  _391
REMARK  160  A    between atoms: _394  and  _396
REMARK  161  A    between atoms: _396  and  _397
REMARK  162  A    between atoms: _396  and  _399
REMARK  163  A    between atoms: _399  and  _400
REMARK  164  A    between atoms: _403  and  _405
REMARK  165  A    between atoms: _405  and  _406
REMARK  166  A    between atoms: _405  and  _408
REMARK  167  A    between atoms: _408  and  _409
REMARK  168  A    between atoms: _409  and  _410
REMARK  169  A    between atoms: _410  and  _411
REMARK  170  A    between atoms: _411  and  _412
REMARK  171  A    between atoms: _416  and  _418
REMARK  172  A    between atoms: _418  and  _419
REMARK  173  A    between atoms: _418  and  _421
REMARK  174  A    between atoms: _421  and  _422
REMARK  175  A    between atoms: _422  and  _423
REMARK  176  A    between atoms: _425  and  _427
REMARK  177  A    between atoms: _427  and  _428
REMARK  178  A    between atoms: _427  and  _430
REMARK  179  A    between atoms: _430  and  _431
REMARK  180  A    between atoms: _434  and  _436
REMARK  181  A    between atoms: _436  and  _437
REMARK  182  A    between atoms: _439  and  _441
REMARK  183  A    between atoms: _441  and  _442
REMARK  184  A    between atoms: _444  and  _446
REMARK  185  A    between atoms: _446  and  _447
REMARK  186  A    between atoms: _446  and  _449
REMARK  187  A    between atoms: _449  and  _450
REMARK  188  A    between atoms: _453  and  _455
REMARK  189  A    between atoms: _455  and  _456
REMARK  190  A    between atoms: _458  and  _460
REMARK  191  A    between atoms: _460  and  _461
REMARK  192  A    between atoms: _463  and  _465
REMARK  193  A    between atoms: _465  and  _466
REMARK  194  A    between atoms: _465  and  _468
REMARK  195  A    between atoms: _468  and  _469
REMARK  196  A    between atoms: _475  and  _477
REMARK  197  A    between atoms: _477  and  _478
REMARK  198  A    between atoms: _477  and  _480
REMARK  199  A    between atoms: _480  and  _481
REMARK  200  A    between atoms: _484  and  _486
REMARK  201  A    between atoms: _486  and  _487
REMARK  202  A    between atoms: _486  and  _489
REMARK  203  A    between atoms: _489  and  _490
REMARK  204  A    between atoms: _494  and  _495
REMARK  205  A    between atoms: _500  and  _502
REMARK  206  A    between atoms: _502  and  _503
REMARK  207  A    between atoms: _502  and  _505
REMARK  208  A    between atoms: _505  and  _506
REMARK  209  A    between atoms: _510  and  _511
REMARK  210  A    between atoms: _516  and  _518
REMARK  211  A    between atoms: _518  and  _519
REMARK  212  A    between atoms: _518  and  _521
REMARK  213  A    between atoms: _521  and  _522
REMARK  214  A    between atoms: _528  and  _530
REMARK  215  A    between atoms: _530  and  _531
REMARK  216  A    between atoms: _530  and  _533
REMARK  217  A    between atoms: _533  and  _534
REMARK  218  A    between atoms: _539  and  _541
REMARK  219  A    between atoms: _541  and  _542
REMARK  220  A    between atoms: _541  and  _544
REMARK  221  A    between atoms: _547  and  _549
REMARK  222  A    between atoms: _549  and  _550
REMARK  223  A    between atoms: _549  and  _552
REMARK  224  A    between atoms: _552  and  _553
REMARK  225  A    between atoms: _556  and  _558
REMARK  226  A    between atoms: _558  and  _559
REMARK  227  A    between atoms: _561  and  _563
REMARK  228  A    between atoms: _563  and  _564
REMARK  229  A    between atoms: _563  and  _566
REMARK  230  A    between atoms: _566  and  _567
REMARK  231  A    between atoms: _567  and  _568
REMARK  232  A    between atoms: _568  and  _569
REMARK  233  A    between atoms: _578  and  _580
REMARK  234  A    between atoms: _580  and  _581
REMARK  235  A    between atoms: _580  and  _583
REMARK  236  A    between atoms: _583  and  _584
REMARK                            x       y       z     vdW  Elec       q    Type
REMARK                         _______ _______ _______ _____ _____    ______ ____
ROOT
ATOM      1  O   HOH     1      -1.686  23.820  24.430  0.00  0.00    +0.000 OA
ENDROOT
TORSDOF 0
REMARK  Name = ../refined-set-2016/1bwa/1bwa_pocket.pdb
REMARK  236 active torsions:
REMARK  status: ('A' for Active; 'I' for Inactive)
REMARK    1  A    between atoms: _1  and  _3
REMARK    2  A    between atoms: _3  and  _4
REMARK    3  A    between atoms: _3  and  _6
REMARK    4  A    between atoms: _6  and  _7
REMARK    5  A    between atoms: _7  and  _8
REMARK    6  A    between atoms: _8  and  _9
REMARK    7  A    between atoms: _18  and  _20
REMARK    8  A    between atoms: _20  and  _21
REMARK    9  A    between atoms: _20  and  _23
REMARK   10  A    between atoms: _23  and  _24
REMARK   11  A    between atoms: _27  and  _29
REMARK   12  A    between atoms: _29  and  _30
REMARK   13  A    between atoms: _29  and  _32
REMARK   14  A    between atoms: _32  and  _33
REMARK   15  A    between atoms: _36  and  _38
REMARK   16  A    between atoms: _38  and  _39
REMARK   17  A    between atoms: _38  and  _41
REMARK   18  A    between atoms: _41  and  _42
REMARK   19  A    between atoms: _45  and  _47
REMARK   20  A    between atoms: _47  and  _48
REMARK   21  A    between atoms: _47  and  _50
REMARK   22  A    between atoms: _50  and  _51
REMARK   23  A    between atoms: _54  and  _56
REMARK   24  A    between atoms: _56  and  _57
REMARK   25  A    between atoms: _59  and  _61
REMARK   26  A    between atoms: _61  and  _62
REMARK   27  A    between atoms: _65  and  _67
REMARK   28  A    between atoms: _67  and  _68
REMARK   29  A    between atoms: _67  and  _70
REMARK   30  A    between atoms: _70  and  _71
REMARK   31  A    between atoms: _74  and  _76
REMARK   32  A    between atoms: _76  and  _77
REMARK   33  A    between atoms: _76  and  _79
REMARK   34  A    between atoms: _79  and  _80
REMARK   35  A    between atoms: _83  and  _85
REMARK   36  A    between atoms: _85  and  _86
REMARK   37  A    between atoms: _85  and  _88
REMARK   38  A    between atoms: _88  and  _89
REMARK   39  A    between atoms: _92  and  _94
REMARK   40  A    between atoms: _94  and  _95
REMARK   41  A    between atoms: _94  and  _97
REMARK   42  A    between atoms: _100  and  _102
REMARK   43  A    between atoms: _102  and  _103
REMARK   44  A    between atoms: _102  and  _105
REMARK   45  A    between atoms: _105  and  _106
REMARK   46  A    between atoms: _109  and  _111
REMARK   47  A    between atoms: _111  and  _112
REMARK   48  A    between atoms: _111  and  _114
REMARK   49  A    between atoms: _114  and  _115
REMARK   50  A    between atoms: _115  and  _116
REMARK   51  A    between atoms: _116  and  _117
REMARK   52  A    between atoms: _117  and  _118
REMARK   53  A    between atoms: _122  and  _124
REMARK   54  A    between atoms: _124  and  _125
REMARK   55  A    between atoms: _124  and  _127
REMARK   56  A    between atoms: _127  and  _128
REMARK   57  A    between atoms: _128  and  _129
REMARK   58  A    between atoms: _131  and  _133
REMARK   59  A    between atoms: _133  and  _134
REMARK   60  A    between atoms: _133  and  _136
REMARK   61  A    between atoms: _136  and  _137
REMARK   62  A    between atoms: _140  and  _142
REMARK   63  A    between atoms: _142  and  _143
REMARK   64  A    between atoms: _145  and  _147
REMARK   65  A    between atoms: _147  and  _148
REMARK   66  A    between atoms: _150  and  _152
REMARK   67  A    between atoms: _152  and  _153
REMARK   68  A    between atoms: _152  and  _155
REMARK   69  A    between atoms: _155  and  _156
REMARK   70  A    between atoms: _159  and  _161
REMARK   71  A    between atoms: _161  and  _162
REMARK   72  A    between atoms: _164  and  _166
REMARK   73  A    between atoms: _166  and  _167
REMARK   74  A    between atoms: _169  and  _171
REMARK   75  A    between atoms: _171  and  _172
REMARK   76  A    between atoms: _171  and  _174
REMARK   77  A    between atoms: _174  and  _175
REMARK   78  A    between atoms: _181  and  _183
REMARK   79  A    between atoms: _183  and  _184
REMARK   80  A    between atoms: _183  and  _186
REMARK   81  A    between atoms: _186  and  _187
REMARK   82  A    between atoms: _190  and  _192
REMARK   83  A    between atoms: _192  and  _193
REMARK   84  A    between atoms: _192  and  _195
REMARK   85  A    between atoms: _195  and  _196
REMARK   86  A    between atoms: _200  and  _201
REMARK   87  A    between atoms: _206  and  _208
REMARK   88  A    between atoms: _208  and  _209
REMARK   89  A    between atoms: _208  and  _211
REMARK   90  A    between atoms: _211  and  _212
REMARK   91  A    between atoms: _216  and  _217
REMARK   92  A    between atoms: _222  and  _224
REMARK   93  A    between atoms: _224  and  _225
REMARK   94  A    between atoms: _224  and  _227
REMARK   95  A    between atoms: _227  and  _228
REMARK   96  A    between atoms: _234  and  _236
REMARK   97  A    between atoms: _236  and  _237
REMARK   98  A    between atoms: _236  and  _239
REMARK   99  A    between atoms: _239  and  _240
REMARK  100  A    between atoms: _245  and  _247
REMARK  101  A    between atoms: _247  and  _248
REMARK  102  A    between atoms: _247  and  _250
REMARK  103  A    between atoms: _253  and  _255
REMARK  104  A    between atoms: _255  and  _256
REMARK  105  A    between atoms: _255  and  _258
REMARK  106  A    between atoms: _258  and  _259
REMARK  107  A    between atoms: _262  and  _264
REMARK  108  A    between atoms: _264  and  _265
REMARK  109  A    between atoms: _267  and  _269
REMARK  110  A    between atoms: _269  and  _270
REMARK  111  A    between atoms: _269  and  _272
REMARK  112  A    between atoms: _272  and  _273
REMARK  113  A    between atoms: _273  and  _274
REMARK  114  A    between atoms: _274  and  _275
REMARK  115  A    between atoms: _284  and  _286
REMARK  116  A    between atoms: _286  and  _287
REMARK  117  A    between atoms: _286  and  _289
REMARK  118  A    between atoms: _289  and  _290
REMARK  119  A    between atoms: _295  and  _297
REMARK  120  A    between atoms: _297  and  _298
REMARK  121  A    between atoms: _297  and  _300
REMARK  122  A    between atoms: _300  and  _301
REMARK  123  A    between atoms: _301  and  _302
REMARK  124  A    between atoms: _302  and  _303
REMARK  125  A    between atoms: _312  and  _314
REMARK  126  A    between atoms: _314  and  _315
REMARK  127  A    between atoms: _314  and  _317
REMARK  128  A    between atoms: _317  and  _318
REMARK  129  A    between atoms: _321  and  _323
REMARK  130  A    between atoms: _323  and  _324
REMARK  131  A    between atoms: _323  and  _326
REMARK  132  A    between atoms: _326  and  _327
REMARK  133  A    between atoms: _330  and  _332
REMARK  134  A    between atoms: _332  and  _333
REMARK  135  A    between atoms: _332  and  _335
REMARK  136  A    between atoms: _335  and  _336
REMARK  137  A    between atoms: _339  and  _341
REMARK  138  A    between atoms: _341  and  _342
REMARK  139  A    between atoms: _341  and  _344
REMARK  140  A    between atoms: _344  and  _345
REMARK  141  A    between atoms: _348  and  _350
REMARK  142  A    between atoms: _350  and  _351
REMARK  143  A    between atoms: _353  and  _355
REMARK  144  A    between atoms: _355  and  _356
REMARK  145  A    between atoms: _359  and  _361
REMARK  146  A    between atoms: _361  and  _362
REMARK  147  A    between atoms: _361  and  _364
REMARK  148  A    between atoms: _364  and  _365
REMARK  149  A    between atoms: _368  and  _370
REMARK  150  A    between atoms: _370  and  _371
REMARK  151  A    between atoms: _370  and  _373
REMARK  152  A    between atoms: _373  and  _374
REMARK  153  A    between atoms: _377  and  _379
REMARK  154  A    between atoms: _379  and  _380
REMARK  155  A    between atoms: _379  and  _382
REMARK  156  A    between atoms: _382  and  _383
REMARK  157  A    between atoms: _386  and  _388
REMARK  158  A    between atoms: _388  and  _389
REMARK  159  A    between atoms: _388  and  _391
REMARK  160  A    between atoms: _394  and  _396
REMARK  161  A    between atoms: _396  and  _397
REMARK  162  A    between atoms: _396  and  _399
REMARK  163  A    between atoms: _399  and  _400
REMARK  164  A    between atoms: _403  and  _405
REMARK  165  A    between atoms: _405  and  _406
REMARK  166  A    between atoms: _405  and  _408
REMARK  167  A    between atoms: _408  and  _409
REMARK  168  A    between atoms: _409  and  _410
REMARK  169  A    between atoms: _410  and  _411
REMARK  170  A    between atoms: _411  and  _412
REMARK  171  A    between atoms: _416  and  _418
REMARK  172  A    between atoms: _418  and  _419
REMARK  173  A    between atoms: _418  and  _421
REMARK  174  A    between atoms: _421  and  _422
REMARK  175  A    between atoms: _422  and  _423
REMARK  176  A    between atoms: _425  and  _427
REMARK  177  A    between atoms: _427  and  _428
REMARK  178  A    between atoms: _427  and  _430
REMARK  179  A    between atoms: _430  and  _431
REMARK  180  A    between atoms: _434  and  _436
REMARK  181  A    between atoms: _436  and  _437
REMARK  182  A    between atoms: _439  and  _441
REMARK  183  A    between atoms: _441  and  _442
REMARK  184  A    between atoms: _444  and  _446
REMARK  185  A    between atoms: _446  and  _447
REMARK  186  A    between atoms: _446  and  _449
REMARK  187  A    between atoms: _449  and  _450
REMARK  188  A    between atoms: _453  and  _455
REMARK  189  A    between atoms: _455  and  _456
REMARK  190  A    between atoms: _458  and  _460
REMARK  191  A    between atoms: _460  and  _461
REMARK  192  A    between atoms: _463  and  _465
REMARK  193  A    between atoms: _465  and  _466
REMARK  194  A    between atoms: _465  and  _468
REMARK  195  A    between atoms: _468  and  _469
REMARK  196  A    between atoms: _475  and  _477
REMARK  197  A    between atoms: _477  and  _478
REMARK  198  A    between atoms: _477  and  _480
REMARK  199  A    between atoms: _480  and  _481
REMARK  200  A    between atoms: _484  and  _486
REMARK  201  A    between atoms: _486  and  _487
REMARK  202  A    between atoms: _486  and  _489
REMARK  203  A    between atoms: _489  and  _490
REMARK  204  A    between atoms: _494  and  _495
REMARK  205  A    between atoms: _500  and  _502
REMARK  206  A    between atoms: _502  and  _503
REMARK  207  A    between atoms: _502  and  _505
REMARK  208  A    between atoms: _505  and  _506
REMARK  209  A    between atoms: _510  and  _511
REMARK  210  A    between atoms: _516  and  _518
REMARK  211  A    between atoms: _518  and  _519
REMARK  212  A    between atoms: _518  and  _521
REMARK  213  A    between atoms: _521  and  _522
REMARK  214  A    between atoms: _528  and  _530
REMARK  215  A    between atoms: _530  and  _531
REMARK  216  A    between atoms: _530  and  _533
REMARK  217  A    between atoms: _533  and  _534
REMARK  218  A    between atoms: _539  and  _541
REMARK  219  A    between atoms: _541  and  _542
REMARK  220  A    between atoms: _541  and  _544
REMARK  221  A    between atoms: _547  and  _549
REMARK  222  A    between atoms: _549  and  _550
REMARK  223  A    between atoms: _549  and  _552
REMARK  224  A    between atoms: _552  and  _553
REMARK  225  A    between atoms: _556  and  _558
REMARK  226  A    between atoms: _558  and  _559
REMARK  227  A    between atoms: _561  and  _563
REMARK  228  A    between atoms: _563  and  _564
REMARK  229  A    between atoms: _563  and  _566
REMARK  230  A    between atoms: _566  and  _567
REMARK  231  A    between atoms: _567  and  _568
REMARK  232  A    between atoms: _568  and  _569
REMARK  233  A    between atoms: _578  and  _580
REMARK  234  A    between atoms: _580  and  _581
REMARK  235  A    between atoms: _580  and  _583
REMARK  236  A    between atoms: _583  and  _584
REMARK                            x       y       z     vdW  Elec       q    Type
REMARK                         _______ _______ _______ _____ _____    ______ ____
ROOT
ATOM      1  O   HOH     1     -12.594  17.575  14.867  0.00  0.00    +0.000 OA
ENDROOT
TORSDOF 0
REMARK  Name = ../refined-set-2016/1bwa/1bwa_pocket.pdb
REMARK  236 active torsions:
REMARK  status: ('A' for Active; 'I' for Inactive)
REMARK    1  A    between atoms: _1  and  _3
REMARK    2  A    between atoms: _3  and  _4
REMARK    3  A    between atoms: _3  and  _6
REMARK    4  A    between atoms: _6  and  _7
REMARK    5  A    between atoms: _7  and  _8
REMARK    6  A    between atoms: _8  and  _9
REMARK    7  A    between atoms: _18  and  _20
REMARK    8  A    between atoms: _20  and  _21
REMARK    9  A    between atoms: _20  and  _23
REMARK   10  A    between atoms: _23  and  _24
REMARK   11  A    between atoms: _27  and  _29
REMARK   12  A    between atoms: _29  and  _30
REMARK   13  A    between atoms: _29  and  _32
REMARK   14  A    between atoms: _32  and  _33
REMARK   15  A    between atoms: _36  and  _38
REMARK   16  A    between atoms: _38  and  _39
REMARK   17  A    between atoms: _38  and  _41
REMARK   18  A    between atoms: _41  and  _42
REMARK   19  A    between atoms: _45  and  _47
REMARK   20  A    between atoms: _47  and  _48
REMARK   21  A    between atoms: _47  and  _50
REMARK   22  A    between atoms: _50  and  _51
REMARK   23  A    between atoms: _54  and  _56
REMARK   24  A    between atoms: _56  and  _57
REMARK   25  A    between atoms: _59  and  _61
REMARK   26  A    between atoms: _61  and  _62
REMARK   27  A    between atoms: _65  and  _67
REMARK   28  A    between atoms: _67  and  _68
REMARK   29  A    between atoms: _67  and  _70
REMARK   30  A    between atoms: _70  and  _71
REMARK   31  A    between atoms: _74  and  _76
REMARK   32  A    between atoms: _76  and  _77
REMARK   33  A    between atoms: _76  and  _79
REMARK   34  A    between atoms: _79  and  _80
REMARK   35  A    between atoms: _83  and  _85
REMARK   36  A    between atoms: _85  and  _86
REMARK   37  A    between atoms: _85  and  _88
REMARK   38  A    between atoms: _88  and  _89
REMARK   39  A    between atoms: _92  and  _94
REMARK   40  A    between atoms: _94  and  _95
REMARK   41  A    between atoms: _94  and  _97
REMARK   42  A    between atoms: _100  and  _102
REMARK   43  A    between atoms: _102  and  _103
REMARK   44  A    between atoms: _102  and  _105
REMARK   45  A    between atoms: _105  and  _106
REMARK   46  A    between atoms: _109  and  _111
REMARK   47  A    between atoms: _111  and  _112
REMARK   48  A    between atoms: _111  and  _114
REMARK   49  A    between atoms: _114  and  _115
REMARK   50  A    between atoms: _115  and  _116
REMARK   51  A    between atoms: _116  and  _117
REMARK   52  A    between atoms: _117  and  _118
REMARK   53  A    between atoms: _122  and  _124
REMARK   54  A    between atoms: _124  and  _125
REMARK   55  A    between atoms: _124  and  _127
REMARK   56  A    between atoms: _127  and  _128
REMARK   57  A    between atoms: _128  and  _129
REMARK   58  A    between atoms: _131  and  _133
REMARK   59  A    between atoms: _133  and  _134
REMARK   60  A    between atoms: _133  and  _136
REMARK   61  A    between atoms: _136  and  _137
REMARK   62  A    between atoms: _140  and  _142
REMARK   63  A    between atoms: _142  and  _143
REMARK   64  A    between atoms: _145  and  _147
REMARK   65  A    between atoms: _147  and  _148
REMARK   66  A    between atoms: _150  and  _152
REMARK   67  A    between atoms: _152  and  _153
REMARK   68  A    between atoms: _152  and  _155
REMARK   69  A    between atoms: _155  and  _156
REMARK   70  A    between atoms: _159  and  _161
REMARK   71  A    between atoms: _161  and  _162
REMARK   72  A    between atoms: _164  and  _166
REMARK   73  A    between atoms: _166  and  _167
REMARK   74  A    between atoms: _169  and  _171
REMARK   75  A    between atoms: _171  and  _172
REMARK   76  A    between atoms: _171  and  _174
REMARK   77  A    between atoms: _174  and  _175
REMARK   78  A    between atoms: _181  and  _183
REMARK   79  A    between atoms: _183  and  _184
REMARK   80  A    between atoms: _183  and  _186
REMARK   81  A    between atoms: _186  and  _187
REMARK   82  A    between atoms: _190  and  _192
REMARK   83  A    between atoms: _192  and  _193
REMARK   84  A    between atoms: _192  and  _195
REMARK   85  A    between atoms: _195  and  _196
REMARK   86  A    between atoms: _200  and  _201
REMARK   87  A    between atoms: _206  and  _208
REMARK   88  A    between atoms: _208  and  _209
REMARK   89  A    between atoms: _208  and  _211
REMARK   90  A    between atoms: _211  and  _212
REMARK   91  A    between atoms: _216  and  _217
REMARK   92  A    between atoms: _222  and  _224
REMARK   93  A    between atoms: _224  and  _225
REMARK   94  A    between atoms: _224  and  _227
REMARK   95  A    between atoms: _227  and  _228
REMARK   96  A    between atoms: _234  and  _236
REMARK   97  A    between atoms: _236  and  _237
REMARK   98  A    between atoms: _236  and  _239
REMARK   99  A    between atoms: _239  and  _240
REMARK  100  A    between atoms: _245  and  _247
REMARK  101  A    between atoms: _247  and  _248
REMARK  102  A    between atoms: _247  and  _250
REMARK  103  A    between atoms: _253  and  _255
REMARK  104  A    between atoms: _255  and  _256
REMARK  105  A    between atoms: _255  and  _258
REMARK  106  A    between atoms: _258  and  _259
REMARK  107  A    between atoms: _262  and  _264
REMARK  108  A    between atoms: _264  and  _265
REMARK  109  A    between atoms: _267  and  _269
REMARK  110  A    between atoms: _269  and  _270
REMARK  111  A    between atoms: _269  and  _272
REMARK  112  A    between atoms: _272  and  _273
REMARK  113  A    between atoms: _273  and  _274
REMARK  114  A    between atoms: _274  and  _275
REMARK  115  A    between atoms: _284  and  _286
REMARK  116  A    between atoms: _286  and  _287
REMARK  117  A    between atoms: _286  and  _289
REMARK  118  A    between atoms: _289  and  _290
REMARK  119  A    between atoms: _295  and  _297
REMARK  120  A    between atoms: _297  and  _298
REMARK  121  A    between atoms: _297  and  _300
REMARK  122  A    between atoms: _300  and  _301
REMARK  123  A    between atoms: _301  and  _302
REMARK  124  A    between atoms: _302  and  _303
REMARK  125  A    between atoms: _312  and  _314
REMARK  126  A    between atoms: _314  and  _315
REMARK  127  A    between atoms: _314  and  _317
REMARK  128  A    between atoms: _317  and  _318
REMARK  129  A    between atoms: _321  and  _323
REMARK  130  A    between atoms: _323  and  _324
REMARK  131  A    between atoms: _323  and  _326
REMARK  132  A    between atoms: _326  and  _327
REMARK  133  A    between atoms: _330  and  _332
REMARK  134  A    between atoms: _332  and  _333
REMARK  135  A    between atoms: _332  and  _335
REMARK  136  A    between atoms: _335  and  _336
REMARK  137  A    between atoms: _339  and  _341
REMARK  138  A    between atoms: _341  and  _342
REMARK  139  A    between atoms: _341  and  _344
REMARK  140  A    between atoms: _344  and  _345
REMARK  141  A    between atoms: _348  and  _350
REMARK  142  A    between atoms: _350  and  _351
REMARK  143  A    between atoms: _353  and  _355
REMARK  144  A    between atoms: _355  and  _356
REMARK  145  A    between atoms: _359  and  _361
REMARK  146  A    between atoms: _361  and  _362
REMARK  147  A    between atoms: _361  and  _364
REMARK  148  A    between atoms: _364  and  _365
REMARK  149  A    between atoms: _368  and  _370
REMARK  150  A    between atoms: _370  and  _371
REMARK  151  A    between atoms: _370  and  _373
REMARK  152  A    between atoms: _373  and  _374
REMARK  153  A    between atoms: _377  and  _379
REMARK  154  A    between atoms: _379  and  _380
REMARK  155  A    between atoms: _379  and  _382
REMARK  156  A    between atoms: _382  and  _383
REMARK  157  A    between atoms: _386  and  _388
REMARK  158  A    between atoms: _388  and  _389
REMARK  159  A    between atoms: _388  and  _391
REMARK  160  A    between atoms: _394  and  _396
REMARK  161  A    between atoms: _396  and  _397
REMARK  162  A    between atoms: _396  and  _399
REMARK  163  A    between atoms: _399  and  _400
REMARK  164  A    between atoms: _403  and  _405
REMARK  165  A    between atoms: _405  and  _406
REMARK  166  A    between atoms: _405  and  _408
REMARK  167  A    between atoms: _408  and  _409
REMARK  168  A    between atoms: _409  and  _410
REMARK  169  A    between atoms: _410  and  _411
REMARK  170  A    between atoms: _411  and  _412
REMARK  171  A    between atoms: _416  and  _418
REMARK  172  A    between atoms: _418  and  _419
REMARK  173  A    between atoms: _418  and  _421
REMARK  174  A    between atoms: _421  and  _422
REMARK  175  A    between atoms: _422  and  _423
REMARK  176  A    between atoms: _425  and  _427
REMARK  177  A    between atoms: _427  and  _428
REMARK  178  A    between atoms: _427  and  _430
REMARK  179  A    between atoms: _430  and  _431
REMARK  180  A    between atoms: _434  and  _436
REMARK  181  A    between atoms: _436  and  _437
REMARK  182  A    between atoms: _439  and  _441
REMARK  183  A    between atoms: _441  and  _442
REMARK  184  A    between atoms: _444  and  _446
REMARK  185  A    between atoms: _446  and  _447
REMARK  186  A    between atoms: _446  and  _449
REMARK  187  A    between atoms: _449  and  _450
REMARK  188  A    between atoms: _453  and  _455
REMARK  189  A    between atoms: _455  and  _456
REMARK  190  A    between atoms: _458  and  _460
REMARK  191  A    between atoms: _460  and  _461
REMARK  192  A    between atoms: _463  and  _465
REMARK  193  A    between atoms: _465  and  _466
REMARK  194  A    between atoms: _465  and  _468
REMARK  195  A    between atoms: _468  and  _469
REMARK  196  A    between atoms: _475  and  _477
REMARK  197  A    between atoms: _477  and  _478
REMARK  198  A    between atoms: _477  and  _480
REMARK  199  A    between atoms: _480  and  _481
REMARK  200  A    between atoms: _484  and  _486
REMARK  201  A    between atoms: _486  and  _487
REMARK  202  A    between atoms: _486  and  _489
REMARK  203  A    between atoms: _489  and  _490
REMARK  204  A    between atoms: _494  and  _495
REMARK  205  A    between atoms: _500  and  _502
REMARK  206  A    between atoms: _502  and  _503
REMARK  207  A    between atoms: _502  and  _505
REMARK  208  A    between atoms: _505  and  _506
REMARK  209  A    between atoms: _510  and  _511
REMARK  210  A    between atoms: _516  and  _518
REMARK  211  A    between atoms: _518  and  _519
REMARK  212  A    between atoms: _518  and  _521
REMARK  213  A    between atoms: _521  and  _522
REMARK  214  A    between atoms: _528  and  _530
REMARK  215  A    between atoms: _530  and  _531
REMARK  216  A    between atoms: _530  and  _533
REMARK  217  A    between atoms: _533  and  _534
REMARK  218  A    between atoms: _539  and  _541
REMARK  219  A    between atoms: _541  and  _542
REMARK  220  A    between atoms: _541  and  _544
REMARK  221  A    between atoms: _547  and  _549
REMARK  222  A    between atoms: _549  and  _550
REMARK  223  A    between atoms: _549  and  _552
REMARK  224  A    between atoms: _552  and  _553
REMARK  225  A    between atoms: _556  and  _558
REMARK  226  A    between atoms: _558  and  _559
REMARK  227  A    between atoms: _561  and  _563
REMARK  228  A    between atoms: _563  and  _564
REMARK  229  A    between atoms: _563  and  _566
REMARK  230  A    between atoms: _566  and  _567
REMARK  231  A    between atoms: _567  and  _568
REMARK  232  A    between atoms: _568  and  _569
REMARK  233  A    between atoms: _578  and  _580
REMARK  234  A    between atoms: _580  and  _581
REMARK  235  A    between atoms: _580  and  _583
REMARK  236  A    between atoms: _583  and  _584
REMARK                            x       y       z     vdW  Elec       q    Type
REMARK                         _______ _______ _______ _____ _____    ______ ____
ROOT
ATOM      1  O   HOH     1      -6.708  19.866  22.650  0.00  0.00    +0.000 OA
ENDROOT
TORSDOF 0
REMARK  Name = ../refined-set-2016/1bwa/1bwa_pocket.pdb
REMARK  236 active torsions:
REMARK  status: ('A' for Active; 'I' for Inactive)
REMARK    1  A    between atoms: _1  and  _3
REMARK    2  A    between atoms: _3  and  _4
REMARK    3  A    between atoms: _3  and  _6
REMARK    4  A    between atoms: _6  and  _7
REMARK    5  A    between atoms: _7  and  _8
REMARK    6  A    between atoms: _8  and  _9
REMARK    7  A    between atoms: _18  and  _20
REMARK    8  A    between atoms: _20  and  _21
REMARK    9  A    between atoms: _20  and  _23
REMARK   10  A    between atoms: _23  and  _24
REMARK   11  A    between atoms: _27  and  _29
REMARK   12  A    between atoms: _29  and  _30
REMARK   13  A    between atoms: _29  and  _32
REMARK   14  A    between atoms: _32  and  _33
REMARK   15  A    between atoms: _36  and  _38
REMARK   16  A    between atoms: _38  and  _39
REMARK   17  A    between atoms: _38  and  _41
REMARK   18  A    between atoms: _41  and  _42
REMARK   19  A    between atoms: _45  and  _47
REMARK   20  A    between atoms: _47  and  _48
REMARK   21  A    between atoms: _47  and  _50
REMARK   22  A    between atoms: _50  and  _51
REMARK   23  A    between atoms: _54  and  _56
REMARK   24  A    between atoms: _56  and  _57
REMARK   25  A    between atoms: _59  and  _61
REMARK   26  A    between atoms: _61  and  _62
REMARK   27  A    between atoms: _65  and  _67
REMARK   28  A    between atoms: _67  and  _68
REMARK   29  A    between atoms: _67  and  _70
REMARK   30  A    between atoms: _70  and  _71
REMARK   31  A    between atoms: _74  and  _76
REMARK   32  A    between atoms: _76  and  _77
REMARK   33  A    between atoms: _76  and  _79
REMARK   34  A    between atoms: _79  and  _80
REMARK   35  A    between atoms: _83  and  _85
REMARK   36  A    between atoms: _85  and  _86
REMARK   37  A    between atoms: _85  and  _88
REMARK   38  A    between atoms: _88  and  _89
REMARK   39  A    between atoms: _92  and  _94
REMARK   40  A    between atoms: _94  and  _95
REMARK   41  A    between atoms: _94  and  _97
REMARK   42  A    between atoms: _100  and  _102
REMARK   43  A    between atoms: _102  and  _103
REMARK   44  A    between atoms: _102  and  _105
REMARK   45  A    between atoms: _105  and  _106
REMARK   46  A    between atoms: _109  and  _111
REMARK   47  A    between atoms: _111  and  _112
REMARK   48  A    between atoms: _111  and  _114
REMARK   49  A    between atoms: _114  and  _115
REMARK   50  A    between atoms: _115  and  _116
REMARK   51  A    between atoms: _116  and  _117
REMARK   52  A    between atoms: _117  and  _118
REMARK   53  A    between atoms: _122  and  _124
REMARK   54  A    between atoms: _124  and  _125
REMARK   55  A    between atoms: _124  and  _127
REMARK   56  A    between atoms: _127  and  _128
REMARK   57  A    between atoms: _128  and  _129
REMARK   58  A    between atoms: _131  and  _133
REMARK   59  A    between atoms: _133  and  _134
REMARK   60  A    between atoms: _133  and  _136
REMARK   61  A    between atoms: _136  and  _137
REMARK   62  A    between atoms: _140  and  _142
REMARK   63  A    between atoms: _142  and  _143
REMARK   64  A    between atoms: _145  and  _147
REMARK   65  A    between atoms: _147  and  _148
REMARK   66  A    between atoms: _150  and  _152
REMARK   67  A    between atoms: _152  and  _153
REMARK   68  A    between atoms: _152  and  _155
REMARK   69  A    between atoms: _155  and  _156
REMARK   70  A    between atoms: _159  and  _161
REMARK   71  A    between atoms: _161  and  _162
REMARK   72  A    between atoms: _164  and  _166
REMARK   73  A    between atoms: _166  and  _167
REMARK   74  A    between atoms: _169  and  _171
REMARK   75  A    between atoms: _171  and  _172
REMARK   76  A    between atoms: _171  and  _174
REMARK   77  A    between atoms: _174  and  _175
REMARK   78  A    between atoms: _181  and  _183
REMARK   79  A    between atoms: _183  and  _184
REMARK   80  A    between atoms: _183  and  _186
REMARK   81  A    between atoms: _186  and  _187
REMARK   82  A    between atoms: _190  and  _192
REMARK   83  A    between atoms: _192  and  _193
REMARK   84  A    between atoms: _192  and  _195
REMARK   85  A    between atoms: _195  and  _196
REMARK   86  A    between atoms: _200  and  _201
REMARK   87  A    between atoms: _206  and  _208
REMARK   88  A    between atoms: _208  and  _209
REMARK   89  A    between atoms: _208  and  _211
REMARK   90  A    between atoms: _211  and  _212
REMARK   91  A    between atoms: _216  and  _217
REMARK   92  A    between atoms: _222  and  _224
REMARK   93  A    between atoms: _224  and  _225
REMARK   94  A    between atoms: _224  and  _227
REMARK   95  A    between atoms: _227  and  _228
REMARK   96  A    between atoms: _234  and  _236
REMARK   97  A    between atoms: _236  and  _237
REMARK   98  A    between atoms: _236  and  _239
REMARK   99  A    between atoms: _239  and  _240
REMARK  100  A    between atoms: _245  and  _247
REMARK  101  A    between atoms: _247  and  _248
REMARK  102  A    between atoms: _247  and  _250
REMARK  103  A    between atoms: _253  and  _255
REMARK  104  A    between atoms: _255  and  _256
REMARK  105  A    between atoms: _255  and  _258
REMARK  106  A    between atoms: _258  and  _259
REMARK  107  A    between atoms: _262  and  _264
REMARK  108  A    between atoms: _264  and  _265
REMARK  109  A    between atoms: _267  and  _269
REMARK  110  A    between atoms: _269  and  _270
REMARK  111  A    between atoms: _269  and  _272
REMARK  112  A    between atoms: _272  and  _273
REMARK  113  A    between atoms: _273  and  _274
REMARK  114  A    between atoms: _274  and  _275
REMARK  115  A    between atoms: _284  and  _286
REMARK  116  A    between atoms: _286  and  _287
REMARK  117  A    between atoms: _286  and  _289
REMARK  118  A    between atoms: _289  and  _290
REMARK  119  A    between atoms: _295  and  _297
REMARK  120  A    between atoms: _297  and  _298
REMARK  121  A    between atoms: _297  and  _300
REMARK  122  A    between atoms: _300  and  _301
REMARK  123  A    between atoms: _301  and  _302
REMARK  124  A    between atoms: _302  and  _303
REMARK  125  A    between atoms: _312  and  _314
REMARK  126  A    between atoms: _314  and  _315
REMARK  127  A    between atoms: _314  and  _317
REMARK  128  A    between atoms: _317  and  _318
REMARK  129  A    between atoms: _321  and  _323
REMARK  130  A    between atoms: _323  and  _324
REMARK  131  A    between atoms: _323  and  _326
REMARK  132  A    between atoms: _326  and  _327
REMARK  133  A    between atoms: _330  and  _332
REMARK  134  A    between atoms: _332  and  _333
REMARK  135  A    between atoms: _332  and  _335
REMARK  136  A    between atoms: _335  and  _336
REMARK  137  A    between atoms: _339  and  _341
REMARK  138  A    between atoms: _341  and  _342
REMARK  139  A    between atoms: _341  and  _344
REMARK  140  A    between atoms: _344  and  _345
REMARK  141  A    between atoms: _348  and  _350
REMARK  142  A    between atoms: _350  and  _351
REMARK  143  A    between atoms: _353  and  _355
REMARK  144  A    between atoms: _355  and  _356
REMARK  145  A    between atoms: _359  and  _361
REMARK  146  A    between atoms: _361  and  _362
REMARK  147  A    between atoms: _361  and  _364
REMARK  148  A    between atoms: _364  and  _365
REMARK  149  A    between atoms: _368  and  _370
REMARK  150  A    between atoms: _370  and  _371
REMARK  151  A    between atoms: _370  and  _373
REMARK  152  A    between atoms: _373  and  _374
REMARK  153  A    between atoms: _377  and  _379
REMARK  154  A    between atoms: _379  and  _380
REMARK  155  A    between atoms: _379  and  _382
REMARK  156  A    between atoms: _382  and  _383
REMARK  157  A    between atoms: _386  and  _388
REMARK  158  A    between atoms: _388  and  _389
REMARK  159  A    between atoms: _388  and  _391
REMARK  160  A    between atoms: _394  and  _396
REMARK  161  A    between atoms: _396  and  _397
REMARK  162  A    between atoms: _396  and  _399
REMARK  163  A    between atoms: _399  and  _400
REMARK  164  A    between atoms: _403  and  _405
REMARK  165  A    between atoms: _405  and  _406
REMARK  166  A    between atoms: _405  and  _408
REMARK  167  A    between atoms: _408  and  _409
REMARK  168  A    between atoms: _409  and  _410
REMARK  169  A    between atoms: _410  and  _411
REMARK  170  A    between atoms: _411  and  _412
REMARK  171  A    between atoms: _416  and  _418
REMARK  172  A    between atoms: _418  and  _419
REMARK  173  A    between atoms: _418  and  _421
REMARK  174  A    between atoms: _421  and  _422
REMARK  175  A    between atoms: _422  and  _423
REMARK  176  A    between atoms: _425  and  _427
REMARK  177  A    between atoms: _427  and  _428
REMARK  178  A    between atoms: _427  and  _430
REMARK  179  A    between atoms: _430  and  _431
REMARK  180  A    between atoms: _434  and  _436
REMARK  181  A    between atoms: _436  and  _437
REMARK  182  A    between atoms: _439  and  _441
REMARK  183  A    between atoms: _441  and  _442
REMARK  184  A    between atoms: _444  and  _446
REMARK  185  A    between atoms: _446  and  _447
REMARK  186  A    between atoms: _446  and  _449
REMARK  187  A    between atoms: _449  and  _450
REMARK  188  A    between atoms: _453  and  _455
REMARK  189  A    between atoms: _455  and  _456
REMARK  190  A    between atoms: _458  and  _460
REMARK  191  A    between atoms: _460  and  _461
REMARK  192  A    between atoms: _463  and  _465
REMARK  193  A    between atoms: _465  and  _466
REMARK  194  A    between atoms: _465  and  _468
REMARK  195  A    between atoms: _468  and  _469
REMARK  196  A    between atoms: _475  and  _477
REMARK  197  A    between atoms: _477  and  _478
REMARK  198  A    between atoms: _477  and  _480
REMARK  199  A    between atoms: _480  and  _481
REMARK  200  A    between atoms: _484  and  _486
REMARK  201  A    between atoms: _486  and  _487
REMARK  202  A    between atoms: _486  and  _489
REMARK  203  A    between atoms: _489  and  _490
REMARK  204  A    between atoms: _494  and  _495
REMARK  205  A    between atoms: _500  and  _502
REMARK  206  A    between atoms: _502  and  _503
REMARK  207  A    between atoms: _502  and  _505
REMARK  208  A    between atoms: _505  and  _506
REMARK  209  A    between atoms: _510  and  _511
REMARK  210  A    between atoms: _516  and  _518
REMARK  211  A    between atoms: _518  and  _519
REMARK  212  A    between atoms: _518  and  _521
REMARK  213  A    between atoms: _521  and  _522
REMARK  214  A    between atoms: _528  and  _530
REMARK  215  A    between atoms: _530  and  _531
REMARK  216  A    between atoms: _530  and  _533
REMARK  217  A    between atoms: _533  and  _534
REMARK  218  A    between atoms: _539  and  _541
REMARK  219  A    between atoms: _541  and  _542
REMARK  220  A    between atoms: _541  and  _544
REMARK  221  A    between atoms: _547  and  _549
REMARK  222  A    between atoms: _549  and  _550
REMARK  223  A    between atoms: _549  and  _552
REMARK  224  A    between atoms: _552  and  _553
REMARK  225  A    between atoms: _556  and  _558
REMARK  226  A    between atoms: _558  and  _559
REMARK  227  A    between atoms: _561  and  _563
REMARK  228  A    between atoms: _563  and  _564
REMARK  229  A    between atoms: _563  and  _566
REMARK  230  A    between atoms: _566  and  _567
REMARK  231  A    between atoms: _567  and  _568
REMARK  232  A    between atoms: _568  and  _569
REMARK  233  A    between atoms: _578  and  _580
REMARK  234  A    between atoms: _580  and  _581
REMARK  235  A    between atoms: _580  and  _583
REMARK  236  A    between atoms: _583  and  _584
REMARK                            x       y       z     vdW  Elec       q    Type
REMARK                         _______ _______ _______ _____ _____    ______ ____
ROOT
ATOM      1  O   HOH     1      -2.296  12.458  13.147  0.00  0.00    +0.000 OA
ENDROOT
TORSDOF 0
REMARK  Name = ../refined-set-2016/1bwa/1bwa_pocket.pdb
REMARK  236 active torsions:
REMARK  status: ('A' for Active; 'I' for Inactive)
REMARK    1  A    between atoms: _1  and  _3
REMARK    2  A    between atoms: _3  and  _4
REMARK    3  A    between atoms: _3  and  _6
REMARK    4  A    between atoms: _6  and  _7
REMARK    5  A    between atoms: _7  and  _8
REMARK    6  A    between atoms: _8  and  _9
REMARK    7  A    between atoms: _18  and  _20
REMARK    8  A    between atoms: _20  and  _21
REMARK    9  A    between atoms: _20  and  _23
REMARK   10  A    between atoms: _23  and  _24
REMARK   11  A    between atoms: _27  and  _29
REMARK   12  A    between atoms: _29  and  _30
REMARK   13  A    between atoms: _29  and  _32
REMARK   14  A    between atoms: _32  and  _33
REMARK   15  A    between atoms: _36  and  _38
REMARK   16  A    between atoms: _38  and  _39
REMARK   17  A    between atoms: _38  and  _41
REMARK   18  A    between atoms: _41  and  _42
REMARK   19  A    between atoms: _45  and  _47
REMARK   20  A    between atoms: _47  and  _48
REMARK   21  A    between atoms: _47  and  _50
REMARK   22  A    between atoms: _50  and  _51
REMARK   23  A    between atoms: _54  and  _56
REMARK   24  A    between atoms: _56  and  _57
REMARK   25  A    between atoms: _59  and  _61
REMARK   26  A    between atoms: _61  and  _62
REMARK   27  A    between atoms: _65  and  _67
REMARK   28  A    between atoms: _67  and  _68
REMARK   29  A    between atoms: _67  and  _70
REMARK   30  A    between atoms: _70  and  _71
REMARK   31  A    between atoms: _74  and  _76
REMARK   32  A    between atoms: _76  and  _77
REMARK   33  A    between atoms: _76  and  _79
REMARK   34  A    between atoms: _79  and  _80
REMARK   35  A    between atoms: _83  and  _85
REMARK   36  A    between atoms: _85  and  _86
REMARK   37  A    between atoms: _85  and  _88
REMARK   38  A    between atoms: _88  and  _89
REMARK   39  A    between atoms: _92  and  _94
REMARK   40  A    between atoms: _94  and  _95
REMARK   41  A    between atoms: _94  and  _97
REMARK   42  A    between atoms: _100  and  _102
REMARK   43  A    between atoms: _102  and  _103
REMARK   44  A    between atoms: _102  and  _105
REMARK   45  A    between atoms: _105  and  _106
REMARK   46  A    between atoms: _109  and  _111
REMARK   47  A    between atoms: _111  and  _112
REMARK   48  A    between atoms: _111  and  _114
REMARK   49  A    between atoms: _114  and  _115
REMARK   50  A    between atoms: _115  and  _116
REMARK   51  A    between atoms: _116  and  _117
REMARK   52  A    between atoms: _117  and  _118
REMARK   53  A    between atoms: _122  and  _124
REMARK   54  A    between atoms: _124  and  _125
REMARK   55  A    between atoms: _124  and  _127
REMARK   56  A    between atoms: _127  and  _128
REMARK   57  A    between atoms: _128  and  _129
REMARK   58  A    between atoms: _131  and  _133
REMARK   59  A    between atoms: _133  and  _134
REMARK   60  A    between atoms: _133  and  _136
REMARK   61  A    between atoms: _136  and  _137
REMARK   62  A    between atoms: _140  and  _142
REMARK   63  A    between atoms: _142  and  _143
REMARK   64  A    between atoms: _145  and  _147
REMARK   65  A    between atoms: _147  and  _148
REMARK   66  A    between atoms: _150  and  _152
REMARK   67  A    between atoms: _152  and  _153
REMARK   68  A    between atoms: _152  and  _155
REMARK   69  A    between atoms: _155  and  _156
REMARK   70  A    between atoms: _159  and  _161
REMARK   71  A    between atoms: _161  and  _162
REMARK   72  A    between atoms: _164  and  _166
REMARK   73  A    between atoms: _166  and  _167
REMARK   74  A    between atoms: _169  and  _171
REMARK   75  A    between atoms: _171  and  _172
REMARK   76  A    between atoms: _171  and  _174
REMARK   77  A    between atoms: _174  and  _175
REMARK   78  A    between atoms: _181  and  _183
REMARK   79  A    between atoms: _183  and  _184
REMARK   80  A    between atoms: _183  and  _186
REMARK   81  A    between atoms: _186  and  _187
REMARK   82  A    between atoms: _190  and  _192
REMARK   83  A    between atoms: _192  and  _193
REMARK   84  A    between atoms: _192  and  _195
REMARK   85  A    between atoms: _195  and  _196
REMARK   86  A    between atoms: _200  and  _201
REMARK   87  A    between atoms: _206  and  _208
REMARK   88  A    between atoms: _208  and  _209
REMARK   89  A    between atoms: _208  and  _211
REMARK   90  A    between atoms: _211  and  _212
REMARK   91  A    between atoms: _216  and  _217
REMARK   92  A    between atoms: _222  and  _224
REMARK   93  A    between atoms: _224  and  _225
REMARK   94  A    between atoms: _224  and  _227
REMARK   95  A    between atoms: _227  and  _228
REMARK   96  A    between atoms: _234  and  _236
REMARK   97  A    between atoms: _236  and  _237
REMARK   98  A    between atoms: _236  and  _239
REMARK   99  A    between atoms: _239  and  _240
REMARK  100  A    between atoms: _245  and  _247
REMARK  101  A    between atoms: _247  and  _248
REMARK  102  A    between atoms: _247  and  _250
REMARK  103  A    between atoms: _253  and  _255
REMARK  104  A    between atoms: _255  and  _256
REMARK  105  A    between atoms: _255  and  _258
REMARK  106  A    between atoms: _258  and  _259
REMARK  107  A    between atoms: _262  and  _264
REMARK  108  A    between atoms: _264  and  _265
REMARK  109  A    between atoms: _267  and  _269
REMARK  110  A    between atoms: _269  and  _270
REMARK  111  A    between atoms: _269  and  _272
REMARK  112  A    between atoms: _272  and  _273
REMARK  113  A    between atoms: _273  and  _274
REMARK  114  A    between atoms: _274  and  _275
REMARK  115  A    between atoms: _284  and  _286
REMARK  116  A    between atoms: _286  and  _287
REMARK  117  A    between atoms: _286  and  _289
REMARK  118  A    between atoms: _289  and  _290
REMARK  119  A    between atoms: _295  and  _297
REMARK  120  A    between atoms: _297  and  _298
REMARK  121  A    between atoms: _297  and  _300
REMARK  122  A    between atoms: _300  and  _301
REMARK  123  A    between atoms: _301  and  _302
REMARK  124  A    between atoms: _302  and  _303
REMARK  125  A    between atoms: _312  and  _314
REMARK  126  A    between atoms: _314  and  _315
REMARK  127  A    between atoms: _314  and  _317
REMARK  128  A    between atoms: _317  and  _318
REMARK  129  A    between atoms: _321  and  _323
REMARK  130  A    between atoms: _323  and  _324
REMARK  131  A    between atoms: _323  and  _326
REMARK  132  A    between atoms: _326  and  _327
REMARK  133  A    between atoms: _330  and  _332
REMARK  134  A    between atoms: _332  and  _333
REMARK  135  A    between atoms: _332  and  _335
REMARK  136  A    between atoms: _335  and  _336
REMARK  137  A    between atoms: _339  and  _341
REMARK  138  A    between atoms: _341  and  _342
REMARK  139  A    between atoms: _341  and  _344
REMARK  140  A    between atoms: _344  and  _345
REMARK  141  A    between atoms: _348  and  _350
REMARK  142  A    between atoms: _350  and  _351
REMARK  143  A    between atoms: _353  and  _355
REMARK  144  A    between atoms: _355  and  _356
REMARK  145  A    between atoms: _359  and  _361
REMARK  146  A    between atoms: _361  and  _362
REMARK  147  A    between atoms: _361  and  _364
REMARK  148  A    between atoms: _364  and  _365
REMARK  149  A    between atoms: _368  and  _370
REMARK  150  A    between atoms: _370  and  _371
REMARK  151  A    between atoms: _370  and  _373
REMARK  152  A    between atoms: _373  and  _374
REMARK  153  A    between atoms: _377  and  _379
REMARK  154  A    between atoms: _379  and  _380
REMARK  155  A    between atoms: _379  and  _382
REMARK  156  A    between atoms: _382  and  _383
REMARK  157  A    between atoms: _386  and  _388
REMARK  158  A    between atoms: _388  and  _389
REMARK  159  A    between atoms: _388  and  _391
REMARK  160  A    between atoms: _394  and  _396
REMARK  161  A    between atoms: _396  and  _397
REMARK  162  A    between atoms: _396  and  _399
REMARK  163  A    between atoms: _399  and  _400
REMARK  164  A    between atoms: _403  and  _405
REMARK  165  A    between atoms: _405  and  _406
REMARK  166  A    between atoms: _405  and  _408
REMARK  167  A    between atoms: _408  and  _409
REMARK  168  A    between atoms: _409  and  _410
REMARK  169  A    between atoms: _410  and  _411
REMARK  170  A    between atoms: _411  and  _412
REMARK  171  A    between atoms: _416  and  _418
REMARK  172  A    between atoms: _418  and  _419
REMARK  173  A    between atoms: _418  and  _421
REMARK  174  A    between atoms: _421  and  _422
REMARK  175  A    between atoms: _422  and  _423
REMARK  176  A    between atoms: _425  and  _427
REMARK  177  A    between atoms: _427  and  _428
REMARK  178  A    between atoms: _427  and  _430
REMARK  179  A    between atoms: _430  and  _431
REMARK  180  A    between atoms: _434  and  _436
REMARK  181  A    between atoms: _436  and  _437
REMARK  182  A    between atoms: _439  and  _441
REMARK  183  A    between atoms: _441  and  _442
REMARK  184  A    between atoms: _444  and  _446
REMARK  185  A    between atoms: _446  and  _447
REMARK  186  A    between atoms: _446  and  _449
REMARK  187  A    between atoms: _449  and  _450
REMARK  188  A    between atoms: _453  and  _455
REMARK  189  A    between atoms: _455  and  _456
REMARK  190  A    between atoms: _458  and  _460
REMARK  191  A    between atoms: _460  and  _461
REMARK  192  A    between atoms: _463  and  _465
REMARK  193  A    between atoms: _465  and  _466
REMARK  194  A    between atoms: _465  and  _468
REMARK  195  A    between atoms: _468  and  _469
REMARK  196  A    between atoms: _475  and  _477
REMARK  197  A    between atoms: _477  and  _478
REMARK  198  A    between atoms: _477  and  _480
REMARK  199  A    between atoms: _480  and  _481
REMARK  200  A    between atoms: _484  and  _486
REMARK  201  A    between atoms: _486  and  _487
REMARK  202  A    between atoms: _486  and  _489
REMARK  203  A    between atoms: _489  and  _490
REMARK  204  A    between atoms: _494  and  _495
REMARK  205  A    between atoms: _500  and  _502
REMARK  206  A    between atoms: _502  and  _503
REMARK  207  A    between atoms: _502  and  _505
REMARK  208  A    between atoms: _505  and  _506
REMARK  209  A    between atoms: _510  and  _511
REMARK  210  A    between atoms: _516  and  _518
REMARK  211  A    between atoms: _518  and  _519
REMARK  212  A    between atoms: _518  and  _521
REMARK  213  A    between atoms: _521  and  _522
REMARK  214  A    between atoms: _528  and  _530
REMARK  215  A    between atoms: _530  and  _531
REMARK  216  A    between atoms: _530  and  _533
REMARK  217  A    between atoms: _533  and  _534
REMARK  218  A    between atoms: _539  and  _541
REMARK  219  A    between atoms: _541  and  _542
REMARK  220  A    between atoms: _541  and  _544
REMARK  221  A    between atoms: _547  and  _549
REMARK  222  A    between atoms: _549  and  _550
REMARK  223  A    between atoms: _549  and  _552
REMARK  224  A    between atoms: _552  and  _553
REMARK  225  A    between atoms: _556  and  _558
REMARK  226  A    between atoms: _558  and  _559
REMARK  227  A    between atoms: _561  and  _563
REMARK  228  A    between atoms: _563  and  _564
REMARK  229  A    between atoms: _563  and  _566
REMARK  230  A    between atoms: _566  and  _567
REMARK  231  A    between atoms: _567  and  _568
REMARK  232  A    between atoms: _568  and  _569
REMARK  233  A    between atoms: _578  and  _580
REMARK  234  A    between atoms: _580  and  _581
REMARK  235  A    between atoms: _580  and  _583
REMARK  236  A    between atoms: _583  and  _584
REMARK                            x       y       z     vdW  Elec       q    Type
REMARK                         _______ _______ _______ _____ _____    ______ ____
ROOT
ATOM      1  O   HOH     1     -14.205  11.429  33.970  0.00  0.00    +0.000 OA
ENDROOT
TORSDOF 0
REMARK  Name = ../refined-set-2016/1bwa/1bwa_pocket.pdb
REMARK  236 active torsions:
REMARK  status: ('A' for Active; 'I' for Inactive)
REMARK    1  A    between atoms: _1  and  _3
REMARK    2  A    between atoms: _3  and  _4
REMARK    3  A    between atoms: _3  and  _6
REMARK    4  A    between atoms: _6  and  _7
REMARK    5  A    between atoms: _7  and  _8
REMARK    6  A    between atoms: _8  and  _9
REMARK    7  A    between atoms: _18  and  _20
REMARK    8  A    between atoms: _20  and  _21
REMARK    9  A    between atoms: _20  and  _23
REMARK   10  A    between atoms: _23  and  _24
REMARK   11  A    between atoms: _27  and  _29
REMARK   12  A    between atoms: _29  and  _30
REMARK   13  A    between atoms: _29  and  _32
REMARK   14  A    between atoms: _32  and  _33
REMARK   15  A    between atoms: _36  and  _38
REMARK   16  A    between atoms: _38  and  _39
REMARK   17  A    between atoms: _38  and  _41
REMARK   18  A    between atoms: _41  and  _42
REMARK   19  A    between atoms: _45  and  _47
REMARK   20  A    between atoms: _47  and  _48
REMARK   21  A    between atoms: _47  and  _50
REMARK   22  A    between atoms: _50  and  _51
REMARK   23  A    between atoms: _54  and  _56
REMARK   24  A    between atoms: _56  and  _57
REMARK   25  A    between atoms: _59  and  _61
REMARK   26  A    between atoms: _61  and  _62
REMARK   27  A    between atoms: _65  and  _67
REMARK   28  A    between atoms: _67  and  _68
REMARK   29  A    between atoms: _67  and  _70
REMARK   30  A    between atoms: _70  and  _71
REMARK   31  A    between atoms: _74  and  _76
REMARK   32  A    between atoms: _76  and  _77
REMARK   33  A    between atoms: _76  and  _79
REMARK   34  A    between atoms: _79  and  _80
REMARK   35  A    between atoms: _83  and  _85
REMARK   36  A    between atoms: _85  and  _86
REMARK   37  A    between atoms: _85  and  _88
REMARK   38  A    between atoms: _88  and  _89
REMARK   39  A    between atoms: _92  and  _94
REMARK   40  A    between atoms: _94  and  _95
REMARK   41  A    between atoms: _94  and  _97
REMARK   42  A    between atoms: _100  and  _102
REMARK   43  A    between atoms: _102  and  _103
REMARK   44  A    between atoms: _102  and  _105
REMARK   45  A    between atoms: _105  and  _106
REMARK   46  A    between atoms: _109  and  _111
REMARK   47  A    between atoms: _111  and  _112
REMARK   48  A    between atoms: _111  and  _114
REMARK   49  A    between atoms: _114  and  _115
REMARK   50  A    between atoms: _115  and  _116
REMARK   51  A    between atoms: _116  and  _117
REMARK   52  A    between atoms: _117  and  _118
REMARK   53  A    between atoms: _122  and  _124
REMARK   54  A    between atoms: _124  and  _125
REMARK   55  A    between atoms: _124  and  _127
REMARK   56  A    between atoms: _127  and  _128
REMARK   57  A    between atoms: _128  and  _129
REMARK   58  A    between atoms: _131  and  _133
REMARK   59  A    between atoms: _133  and  _134
REMARK   60  A    between atoms: _133  and  _136
REMARK   61  A    between atoms: _136  and  _137
REMARK   62  A    between atoms: _140  and  _142
REMARK   63  A    between atoms: _142  and  _143
REMARK   64  A    between atoms: _145  and  _147
REMARK   65  A    between atoms: _147  and  _148
REMARK   66  A    between atoms: _150  and  _152
REMARK   67  A    between atoms: _152  and  _153
REMARK   68  A    between atoms: _152  and  _155
REMARK   69  A    between atoms: _155  and  _156
REMARK   70  A    between atoms: _159  and  _161
REMARK   71  A    between atoms: _161  and  _162
REMARK   72  A    between atoms: _164  and  _166
REMARK   73  A    between atoms: _166  and  _167
REMARK   74  A    between atoms: _169  and  _171
REMARK   75  A    between atoms: _171  and  _172
REMARK   76  A    between atoms: _171  and  _174
REMARK   77  A    between atoms: _174  and  _175
REMARK   78  A    between atoms: _181  and  _183
REMARK   79  A    between atoms: _183  and  _184
REMARK   80  A    between atoms: _183  and  _186
REMARK   81  A    between atoms: _186  and  _187
REMARK   82  A    between atoms: _190  and  _192
REMARK   83  A    between atoms: _192  and  _193
REMARK   84  A    between atoms: _192  and  _195
REMARK   85  A    between atoms: _195  and  _196
REMARK   86  A    between atoms: _200  and  _201
REMARK   87  A    between atoms: _206  and  _208
REMARK   88  A    between atoms: _208  and  _209
REMARK   89  A    between atoms: _208  and  _211
REMARK   90  A    between atoms: _211  and  _212
REMARK   91  A    between atoms: _216  and  _217
REMARK   92  A    between atoms: _222  and  _224
REMARK   93  A    between atoms: _224  and  _225
REMARK   94  A    between atoms: _224  and  _227
REMARK   95  A    between atoms: _227  and  _228
REMARK   96  A    between atoms: _234  and  _236
REMARK   97  A    between atoms: _236  and  _237
REMARK   98  A    between atoms: _236  and  _239
REMARK   99  A    between atoms: _239  and  _240
REMARK  100  A    between atoms: _245  and  _247
REMARK  101  A    between atoms: _247  and  _248
REMARK  102  A    between atoms: _247  and  _250
REMARK  103  A    between atoms: _253  and  _255
REMARK  104  A    between atoms: _255  and  _256
REMARK  105  A    between atoms: _255  and  _258
REMARK  106  A    between atoms: _258  and  _259
REMARK  107  A    between atoms: _262  and  _264
REMARK  108  A    between atoms: _264  and  _265
REMARK  109  A    between atoms: _267  and  _269
REMARK  110  A    between atoms: _269  and  _270
REMARK  111  A    between atoms: _269  and  _272
REMARK  112  A    between atoms: _272  and  _273
REMARK  113  A    between atoms: _273  and  _274
REMARK  114  A    between atoms: _274  and  _275
REMARK  115  A    between atoms: _284  and  _286
REMARK  116  A    between atoms: _286  and  _287
REMARK  117  A    between atoms: _286  and  _289
REMARK  118  A    between atoms: _289  and  _290
REMARK  119  A    between atoms: _295  and  _297
REMARK  120  A    between atoms: _297  and  _298
REMARK  121  A    between atoms: _297  and  _300
REMARK  122  A    between atoms: _300  and  _301
REMARK  123  A    between atoms: _301  and  _302
REMARK  124  A    between atoms: _302  and  _303
REMARK  125  A    between atoms: _312  and  _314
REMARK  126  A    between atoms: _314  and  _315
REMARK  127  A    between atoms: _314  and  _317
REMARK  128  A    between atoms: _317  and  _318
REMARK  129  A    between atoms: _321  and  _323
REMARK  130  A    between atoms: _323  and  _324
REMARK  131  A    between atoms: _323  and  _326
REMARK  132  A    between atoms: _326  and  _327
REMARK  133  A    between atoms: _330  and  _332
REMARK  134  A    between atoms: _332  and  _333
REMARK  135  A    between atoms: _332  and  _335
REMARK  136  A    between atoms: _335  and  _336
REMARK  137  A    between atoms: _339  and  _341
REMARK  138  A    between atoms: _341  and  _342
REMARK  139  A    between atoms: _341  and  _344
REMARK  140  A    between atoms: _344  and  _345
REMARK  141  A    between atoms: _348  and  _350
REMARK  142  A    between atoms: _350  and  _351
REMARK  143  A    between atoms: _353  and  _355
REMARK  144  A    between atoms: _355  and  _356
REMARK  145  A    between atoms: _359  and  _361
REMARK  146  A    between atoms: _361  and  _362
REMARK  147  A    between atoms: _361  and  _364
REMARK  148  A    between atoms: _364  and  _365
REMARK  149  A    between atoms: _368  and  _370
REMARK  150  A    between atoms: _370  and  _371
REMARK  151  A    between atoms: _370  and  _373
REMARK  152  A    between atoms: _373  and  _374
REMARK  153  A    between atoms: _377  and  _379
REMARK  154  A    between atoms: _379  and  _380
REMARK  155  A    between atoms: _379  and  _382
REMARK  156  A    between atoms: _382  and  _383
REMARK  157  A    between atoms: _386  and  _388
REMARK  158  A    between atoms: _388  and  _389
REMARK  159  A    between atoms: _388  and  _391
REMARK  160  A    between atoms: _394  and  _396
REMARK  161  A    between atoms: _396  and  _397
REMARK  162  A    between atoms: _396  and  _399
REMARK  163  A    between atoms: _399  and  _400
REMARK  164  A    between atoms: _403  and  _405
REMARK  165  A    between atoms: _405  and  _406
REMARK  166  A    between atoms: _405  and  _408
REMARK  167  A    between atoms: _408  and  _409
REMARK  168  A    between atoms: _409  and  _410
REMARK  169  A    between atoms: _410  and  _411
REMARK  170  A    between atoms: _411  and  _412
REMARK  171  A    between atoms: _416  and  _418
REMARK  172  A    between atoms: _418  and  _419
REMARK  173  A    between atoms: _418  and  _421
REMARK  174  A    between atoms: _421  and  _422
REMARK  175  A    between atoms: _422  and  _423
REMARK  176  A    between atoms: _425  and  _427
REMARK  177  A    between atoms: _427  and  _428
REMARK  178  A    between atoms: _427  and  _430
REMARK  179  A    between atoms: _430  and  _431
REMARK  180  A    between atoms: _434  and  _436
REMARK  181  A    between atoms: _436  and  _437
REMARK  182  A    between atoms: _439  and  _441
REMARK  183  A    between atoms: _441  and  _442
REMARK  184  A    between atoms: _444  and  _446
REMARK  185  A    between atoms: _446  and  _447
REMARK  186  A    between atoms: _446  and  _449
REMARK  187  A    between atoms: _449  and  _450
REMARK  188  A    between atoms: _453  and  _455
REMARK  189  A    between atoms: _455  and  _456
REMARK  190  A    between atoms: _458  and  _460
REMARK  191  A    between atoms: _460  and  _461
REMARK  192  A    between atoms: _463  and  _465
REMARK  193  A    between atoms: _465  and  _466
REMARK  194  A    between atoms: _465  and  _468
REMARK  195  A    between atoms: _468  and  _469
REMARK  196  A    between atoms: _475  and  _477
REMARK  197  A    between atoms: _477  and  _478
REMARK  198  A    between atoms: _477  and  _480
REMARK  199  A    between atoms: _480  and  _481
REMARK  200  A    between atoms: _484  and  _486
REMARK  201  A    between atoms: _486  and  _487
REMARK  202  A    between atoms: _486  and  _489
REMARK  203  A    between atoms: _489  and  _490
REMARK  204  A    between atoms: _494  and  _495
REMARK  205  A    between atoms: _500  and  _502
REMARK  206  A    between atoms: _502  and  _503
REMARK  207  A    between atoms: _502  and  _505
REMARK  208  A    between atoms: _505  and  _506
REMARK  209  A    between atoms: _510  and  _511
REMARK  210  A    between atoms: _516  and  _518
REMARK  211  A    between atoms: _518  and  _519
REMARK  212  A    between atoms: _518  and  _521
REMARK  213  A    between atoms: _521  and  _522
REMARK  214  A    between atoms: _528  and  _530
REMARK  215  A    between atoms: _530  and  _531
REMARK  216  A    between atoms: _530  and  _533
REMARK  217  A    between atoms: _533  and  _534
REMARK  218  A    between atoms: _539  and  _541
REMARK  219  A    between atoms: _541  and  _542
REMARK  220  A    between atoms: _541  and  _544
REMARK  221  A    between atoms: _547  and  _549
REMARK  222  A    between atoms: _549  and  _550
REMARK  223  A    between atoms: _549  and  _552
REMARK  224  A    between atoms: _552  and  _553
REMARK  225  A    between atoms: _556  and  _558
REMARK  226  A    between atoms: _558  and  _559
REMARK  227  A    between atoms: _561  and  _563
REMARK  228  A    between atoms: _563  and  _564
REMARK  229  A    between atoms: _563  and  _566
REMARK  230  A    between atoms: _566  and  _567
REMARK  231  A    between atoms: _567  and  _568
REMARK  232  A    between atoms: _568  and  _569
REMARK  233  A    between atoms: _578  and  _580
REMARK  234  A    between atoms: _580  and  _581
REMARK  235  A    between atoms: _580  and  _583
REMARK  236  A    between atoms: _583  and  _584
REMARK                            x       y       z     vdW  Elec       q    Type
REMARK                         _______ _______ _______ _____ _____    ______ ____
ROOT
ATOM      1  O   HOH     1      -9.788  17.875  12.865  0.00  0.00    +0.000 OA
ENDROOT
TORSDOF 0
REMARK  Name = ../refined-set-2016/1bwa/1bwa_pocket.pdb
REMARK  236 active torsions:
REMARK  status: ('A' for Active; 'I' for Inactive)
REMARK    1  A    between atoms: _1  and  _3
REMARK    2  A    between atoms: _3  and  _4
REMARK    3  A    between atoms: _3  and  _6
REMARK    4  A    between atoms: _6  and  _7
REMARK    5  A    between atoms: _7  and  _8
REMARK    6  A    between atoms: _8  and  _9
REMARK    7  A    between atoms: _18  and  _20
REMARK    8  A    between atoms: _20  and  _21
REMARK    9  A    between atoms: _20  and  _23
REMARK   10  A    between atoms: _23  and  _24
REMARK   11  A    between atoms: _27  and  _29
REMARK   12  A    between atoms: _29  and  _30
REMARK   13  A    between atoms: _29  and  _32
REMARK   14  A    between atoms: _32  and  _33
REMARK   15  A    between atoms: _36  and  _38
REMARK   16  A    between atoms: _38  and  _39
REMARK   17  A    between atoms: _38  and  _41
REMARK   18  A    between atoms: _41  and  _42
REMARK   19  A    between atoms: _45  and  _47
REMARK   20  A    between atoms: _47  and  _48
REMARK   21  A    between atoms: _47  and  _50
REMARK   22  A    between atoms: _50  and  _51
REMARK   23  A    between atoms: _54  and  _56
REMARK   24  A    between atoms: _56  and  _57
REMARK   25  A    between atoms: _59  and  _61
REMARK   26  A    between atoms: _61  and  _62
REMARK   27  A    between atoms: _65  and  _67
REMARK   28  A    between atoms: _67  and  _68
REMARK   29  A    between atoms: _67  and  _70
REMARK   30  A    between atoms: _70  and  _71
REMARK   31  A    between atoms: _74  and  _76
REMARK   32  A    between atoms: _76  and  _77
REMARK   33  A    between atoms: _76  and  _79
REMARK   34  A    between atoms: _79  and  _80
REMARK   35  A    between atoms: _83  and  _85
REMARK   36  A    between atoms: _85  and  _86
REMARK   37  A    between atoms: _85  and  _88
REMARK   38  A    between atoms: _88  and  _89
REMARK   39  A    between atoms: _92  and  _94
REMARK   40  A    between atoms: _94  and  _95
REMARK   41  A    between atoms: _94  and  _97
REMARK   42  A    between atoms: _100  and  _102
REMARK   43  A    between atoms: _102  and  _103
REMARK   44  A    between atoms: _102  and  _105
REMARK   45  A    between atoms: _105  and  _106
REMARK   46  A    between atoms: _109  and  _111
REMARK   47  A    between atoms: _111  and  _112
REMARK   48  A    between atoms: _111  and  _114
REMARK   49  A    between atoms: _114  and  _115
REMARK   50  A    between atoms: _115  and  _116
REMARK   51  A    between atoms: _116  and  _117
REMARK   52  A    between atoms: _117  and  _118
REMARK   53  A    between atoms: _122  and  _124
REMARK   54  A    between atoms: _124  and  _125
REMARK   55  A    between atoms: _124  and  _127
REMARK   56  A    between atoms: _127  and  _128
REMARK   57  A    between atoms: _128  and  _129
REMARK   58  A    between atoms: _131  and  _133
REMARK   59  A    between atoms: _133  and  _134
REMARK   60  A    between atoms: _133  and  _136
REMARK   61  A    between atoms: _136  and  _137
REMARK   62  A    between atoms: _140  and  _142
REMARK   63  A    between atoms: _142  and  _143
REMARK   64  A    between atoms: _145  and  _147
REMARK   65  A    between atoms: _147  and  _148
REMARK   66  A    between atoms: _150  and  _152
REMARK   67  A    between atoms: _152  and  _153
REMARK   68  A    between atoms: _152  and  _155
REMARK   69  A    between atoms: _155  and  _156
REMARK   70  A    between atoms: _159  and  _161
REMARK   71  A    between atoms: _161  and  _162
REMARK   72  A    between atoms: _164  and  _166
REMARK   73  A    between atoms: _166  and  _167
REMARK   74  A    between atoms: _169  and  _171
REMARK   75  A    between atoms: _171  and  _172
REMARK   76  A    between atoms: _171  and  _174
REMARK   77  A    between atoms: _174  and  _175
REMARK   78  A    between atoms: _181  and  _183
REMARK   79  A    between atoms: _183  and  _184
REMARK   80  A    between atoms: _183  and  _186
REMARK   81  A    between atoms: _186  and  _187
REMARK   82  A    between atoms: _190  and  _192
REMARK   83  A    between atoms: _192  and  _193
REMARK   84  A    between atoms: _192  and  _195
REMARK   85  A    between atoms: _195  and  _196
REMARK   86  A    between atoms: _200  and  _201
REMARK   87  A    between atoms: _206  and  _208
REMARK   88  A    between atoms: _208  and  _209
REMARK   89  A    between atoms: _208  and  _211
REMARK   90  A    between atoms: _211  and  _212
REMARK   91  A    between atoms: _216  and  _217
REMARK   92  A    between atoms: _222  and  _224
REMARK   93  A    between atoms: _224  and  _225
REMARK   94  A    between atoms: _224  and  _227
REMARK   95  A    between atoms: _227  and  _228
REMARK   96  A    between atoms: _234  and  _236
REMARK   97  A    between atoms: _236  and  _237
REMARK   98  A    between atoms: _236  and  _239
REMARK   99  A    between atoms: _239  and  _240
REMARK  100  A    between atoms: _245  and  _247
REMARK  101  A    between atoms: _247  and  _248
REMARK  102  A    between atoms: _247  and  _250
REMARK  103  A    between atoms: _253  and  _255
REMARK  104  A    between atoms: _255  and  _256
REMARK  105  A    between atoms: _255  and  _258
REMARK  106  A    between atoms: _258  and  _259
REMARK  107  A    between atoms: _262  and  _264
REMARK  108  A    between atoms: _264  and  _265
REMARK  109  A    between atoms: _267  and  _269
REMARK  110  A    between atoms: _269  and  _270
REMARK  111  A    between atoms: _269  and  _272
REMARK  112  A    between atoms: _272  and  _273
REMARK  113  A    between atoms: _273  and  _274
REMARK  114  A    between atoms: _274  and  _275
REMARK  115  A    between atoms: _284  and  _286
REMARK  116  A    between atoms: _286  and  _287
REMARK  117  A    between atoms: _286  and  _289
REMARK  118  A    between atoms: _289  and  _290
REMARK  119  A    between atoms: _295  and  _297
REMARK  120  A    between atoms: _297  and  _298
REMARK  121  A    between atoms: _297  and  _300
REMARK  122  A    between atoms: _300  and  _301
REMARK  123  A    between atoms: _301  and  _302
REMARK  124  A    between atoms: _302  and  _303
REMARK  125  A    between atoms: _312  and  _314
REMARK  126  A    between atoms: _314  and  _315
REMARK  127  A    between atoms: _314  and  _317
REMARK  128  A    between atoms: _317  and  _318
REMARK  129  A    between atoms: _321  and  _323
REMARK  130  A    between atoms: _323  and  _324
REMARK  131  A    between atoms: _323  and  _326
REMARK  132  A    between atoms: _326  and  _327
REMARK  133  A    between atoms: _330  and  _332
REMARK  134  A    between atoms: _332  and  _333
REMARK  135  A    between atoms: _332  and  _335
REMARK  136  A    between atoms: _335  and  _336
REMARK  137  A    between atoms: _339  and  _341
REMARK  138  A    between atoms: _341  and  _342
REMARK  139  A    between atoms: _341  and  _344
REMARK  140  A    between atoms: _344  and  _345
REMARK  141  A    between atoms: _348  and  _350
REMARK  142  A    between atoms: _350  and  _351
REMARK  143  A    between atoms: _353  and  _355
REMARK  144  A    between atoms: _355  and  _356
REMARK  145  A    between atoms: _359  and  _361
REMARK  146  A    between atoms: _361  and  _362
REMARK  147  A    between atoms: _361  and  _364
REMARK  148  A    between atoms: _364  and  _365
REMARK  149  A    between atoms: _368  and  _370
REMARK  150  A    between atoms: _370  and  _371
REMARK  151  A    between atoms: _370  and  _373
REMARK  152  A    between atoms: _373  and  _374
REMARK  153  A    between atoms: _377  and  _379
REMARK  154  A    between atoms: _379  and  _380
REMARK  155  A    between atoms: _379  and  _382
REMARK  156  A    between atoms: _382  and  _383
REMARK  157  A    between atoms: _386  and  _388
REMARK  158  A    between atoms: _388  and  _389
REMARK  159  A    between atoms: _388  and  _391
REMARK  160  A    between atoms: _394  and  _396
REMARK  161  A    between atoms: _396  and  _397
REMARK  162  A    between atoms: _396  and  _399
REMARK  163  A    between atoms: _399  and  _400
REMARK  164  A    between atoms: _403  and  _405
REMARK  165  A    between atoms: _405  and  _406
REMARK  166  A    between atoms: _405  and  _408
REMARK  167  A    between atoms: _408  and  _409
REMARK  168  A    between atoms: _409  and  _410
REMARK  169  A    between atoms: _410  and  _411
REMARK  170  A    between atoms: _411  and  _412
REMARK  171  A    between atoms: _416  and  _418
REMARK  172  A    between atoms: _418  and  _419
REMARK  173  A    between atoms: _418  and  _421
REMARK  174  A    between atoms: _421  and  _422
REMARK  175  A    between atoms: _422  and  _423
REMARK  176  A    between atoms: _425  and  _427
REMARK  177  A    between atoms: _427  and  _428
REMARK  178  A    between atoms: _427  and  _430
REMARK  179  A    between atoms: _430  and  _431
REMARK  180  A    between atoms: _434  and  _436
REMARK  181  A    between atoms: _436  and  _437
REMARK  182  A    between atoms: _439  and  _441
REMARK  183  A    between atoms: _441  and  _442
REMARK  184  A    between atoms: _444  and  _446
REMARK  185  A    between atoms: _446  and  _447
REMARK  186  A    between atoms: _446  and  _449
REMARK  187  A    between atoms: _449  and  _450
REMARK  188  A    between atoms: _453  and  _455
REMARK  189  A    between atoms: _455  and  _456
REMARK  190  A    between atoms: _458  and  _460
REMARK  191  A    between atoms: _460  and  _461
REMARK  192  A    between atoms: _463  and  _465
REMARK  193  A    between atoms: _465  and  _466
REMARK  194  A    between atoms: _465  and  _468
REMARK  195  A    between atoms: _468  and  _469
REMARK  196  A    between atoms: _475  and  _477
REMARK  197  A    between atoms: _477  and  _478
REMARK  198  A    between atoms: _477  and  _480
REMARK  199  A    between atoms: _480  and  _481
REMARK  200  A    between atoms: _484  and  _486
REMARK  201  A    between atoms: _486  and  _487
REMARK  202  A    between atoms: _486  and  _489
REMARK  203  A    between atoms: _489  and  _490
REMARK  204  A    between atoms: _494  and  _495
REMARK  205  A    between atoms: _500  and  _502
REMARK  206  A    between atoms: _502  and  _503
REMARK  207  A    between atoms: _502  and  _505
REMARK  208  A    between atoms: _505  and  _506
REMARK  209  A    between atoms: _510  and  _511
REMARK  210  A    between atoms: _516  and  _518
REMARK  211  A    between atoms: _518  and  _519
REMARK  212  A    between atoms: _518  and  _521
REMARK  213  A    between atoms: _521  and  _522
REMARK  214  A    between atoms: _528  and  _530
REMARK  215  A    between atoms: _530  and  _531
REMARK  216  A    between atoms: _530  and  _533
REMARK  217  A    between atoms: _533  and  _534
REMARK  218  A    between atoms: _539  and  _541
REMARK  219  A    between atoms: _541  and  _542
REMARK  220  A    between atoms: _541  and  _544
REMARK  221  A    between atoms: _547  and  _549
REMARK  222  A    between atoms: _549  and  _550
REMARK  223  A    between atoms: _549  and  _552
REMARK  224  A    between atoms: _552  and  _553
REMARK  225  A    between atoms: _556  and  _558
REMARK  226  A    between atoms: _558  and  _559
REMARK  227  A    between atoms: _561  and  _563
REMARK  228  A    between atoms: _563  and  _564
REMARK  229  A    between atoms: _563  and  _566
REMARK  230  A    between atoms: _566  and  _567
REMARK  231  A    between atoms: _567  and  _568
REMARK  232  A    between atoms: _568  and  _569
REMARK  233  A    between atoms: _578  and  _580
REMARK  234  A    between atoms: _580  and  _581
REMARK  235  A    between atoms: _580  and  _583
REMARK  236  A    between atoms: _583  and  _584
REMARK                            x       y       z     vdW  Elec       q    Type
REMARK                         _______ _______ _______ _____ _____    ______ ____
ROOT
ATOM      1  O   HOH     1      -3.110  23.340  20.853  0.00  0.00    +0.000 OA
ENDROOT
TORSDOF 0
