REMARK  Name = ../refined-set-2016/3aaq/3aaq_pocket.pdb
REMARK  226 active torsions:
REMARK  status: ('A' for Active; 'I' for Inactive)
REMARK    1  A    between atoms: _1  and  _3
REMARK    2  A    between atoms: _3  and  _4
REMARK    3  A    between atoms: _3  and  _6
REMARK    4  A    between atoms: _6  and  _7
REMARK    5  A    between atoms: _10  and  _12
REMARK    6  A    between atoms: _12  and  _13
REMARK    7  A    between atoms: _16  and  _18
REMARK    8  A    between atoms: _18  and  _19
REMARK    9  A    between atoms: _21  and  _23
REMARK   10  A    between atoms: _23  and  _24
REMARK   11  A    between atoms: _23  and  _26
REMARK   12  A    between atoms: _26  and  _27
REMARK   13  A    between atoms: _29  and  _31
REMARK   14  A    between atoms: _31  and  _32
REMARK   15  A    between atoms: _31  and  _34
REMARK   16  A    between atoms: _34  and  _35
REMARK   17  A    between atoms: _38  and  _40
REMARK   18  A    between atoms: _40  and  _41
REMARK   19  A    between atoms: _43  and  _45
REMARK   20  A    between atoms: _45  and  _46
REMARK   21  A    between atoms: _45  and  _48
REMARK   22  A    between atoms: _48  and  _49
REMARK   23  A    between atoms: _51  and  _53
REMARK   24  A    between atoms: _53  and  _54
REMARK   25  A    between atoms: _53  and  _56
REMARK   26  A    between atoms: _56  and  _57
REMARK   27  A    between atoms: _57  and  _58
REMARK   28  A    between atoms: _58  and  _59
REMARK   29  A    between atoms: _68  and  _70
REMARK   30  A    between atoms: _70  and  _71
REMARK   31  A    between atoms: _70  and  _73
REMARK   32  A    between atoms: _73  and  _74
REMARK   33  A    between atoms: _74  and  _75
REMARK   34  A    between atoms: _75  and  _76
REMARK   35  A    between atoms: _76  and  _77
REMARK   36  A    between atoms: _81  and  _83
REMARK   37  A    between atoms: _83  and  _84
REMARK   38  A    between atoms: _83  and  _86
REMARK   39  A    between atoms: _86  and  _87
REMARK   40  A    between atoms: _90  and  _92
REMARK   41  A    between atoms: _92  and  _93
REMARK   42  A    between atoms: _92  and  _95
REMARK   43  A    between atoms: _95  and  _96
REMARK   44  A    between atoms: _96  and  _97
REMARK   45  A    between atoms: _97  and  _98
REMARK   46  A    between atoms: _98  and  _99
REMARK   47  A    between atoms: _104  and  _105
REMARK   48  A    between atoms: _110  and  _112
REMARK   49  A    between atoms: _112  and  _113
REMARK   50  A    between atoms: _115  and  _117
REMARK   51  A    between atoms: _117  and  _118
REMARK   52  A    between atoms: _117  and  _120
REMARK   53  A    between atoms: _120  and  _121
REMARK   54  A    between atoms: _127  and  _129
REMARK   55  A    between atoms: _129  and  _130
REMARK   56  A    between atoms: _129  and  _132
REMARK   57  A    between atoms: _132  and  _133
REMARK   58  A    between atoms: _136  and  _138
REMARK   59  A    between atoms: _138  and  _139
REMARK   60  A    between atoms: _142  and  _144
REMARK   61  A    between atoms: _144  and  _145
REMARK   62  A    between atoms: _147  and  _149
REMARK   63  A    between atoms: _149  and  _150
REMARK   64  A    between atoms: _149  and  _152
REMARK   65  A    between atoms: _152  and  _153
REMARK   66  A    between atoms: _153  and  _154
REMARK   67  A    between atoms: _156  and  _158
REMARK   68  A    between atoms: _158  and  _159
REMARK   69  A    between atoms: _158  and  _161
REMARK   70  A    between atoms: _161  and  _162
REMARK   71  A    between atoms: _162  and  _163
REMARK   72  A    between atoms: _163  and  _164
REMARK   73  A    between atoms: _173  and  _175
REMARK   74  A    between atoms: _175  and  _176
REMARK   75  A    between atoms: _175  and  _178
REMARK   76  A    between atoms: _178  and  _179
REMARK   77  A    between atoms: _179  and  _180
REMARK   78  A    between atoms: _183  and  _185
REMARK   79  A    between atoms: _185  and  _186
REMARK   80  A    between atoms: _185  and  _188
REMARK   81  A    between atoms: _188  and  _189
REMARK   82  A    between atoms: _192  and  _194
REMARK   83  A    between atoms: _194  and  _195
REMARK   84  A    between atoms: _194  and  _197
REMARK   85  A    between atoms: _197  and  _198
REMARK   86  A    between atoms: _198  and  _199
REMARK   87  A    between atoms: _201  and  _203
REMARK   88  A    between atoms: _203  and  _204
REMARK   89  A    between atoms: _206  and  _208
REMARK   90  A    between atoms: _208  and  _209
REMARK   91  A    between atoms: _211  and  _213
REMARK   92  A    between atoms: _213  and  _214
REMARK   93  A    between atoms: _217  and  _219
REMARK   94  A    between atoms: _219  and  _220
REMARK   95  A    between atoms: _219  and  _222
REMARK   96  A    between atoms: _222  and  _223
REMARK   97  A    between atoms: _225  and  _227
REMARK   98  A    between atoms: _227  and  _228
REMARK   99  A    between atoms: _227  and  _230
REMARK  100  A    between atoms: _233  and  _235
REMARK  101  A    between atoms: _235  and  _236
REMARK  102  A    between atoms: _235  and  _238
REMARK  103  A    between atoms: _238  and  _239
REMARK  104  A    between atoms: _239  and  _240
REMARK  105  A    between atoms: _245  and  _247
REMARK  106  A    between atoms: _247  and  _248
REMARK  107  A    between atoms: _250  and  _252
REMARK  108  A    between atoms: _252  and  _253
REMARK  109  A    between atoms: _252  and  _255
REMARK  110  A    between atoms: _255  and  _256
REMARK  111  A    between atoms: _256  and  _257
REMARK  112  A    between atoms: _262  and  _264
REMARK  113  A    between atoms: _264  and  _265
REMARK  114  A    between atoms: _264  and  _267
REMARK  115  A    between atoms: _267  and  _268
REMARK  116  A    between atoms: _271  and  _273
REMARK  117  A    between atoms: _273  and  _274
REMARK  118  A    between atoms: _273  and  _276
REMARK  119  A    between atoms: _276  and  _277
REMARK  120  A    between atoms: _277  and  _278
REMARK  121  A    between atoms: _281  and  _283
REMARK  122  A    between atoms: _283  and  _284
REMARK  123  A    between atoms: _283  and  _286
REMARK  124  A    between atoms: _286  and  _287
REMARK  125  A    between atoms: _289  and  _291
REMARK  126  A    between atoms: _291  and  _292
REMARK  127  A    between atoms: _291  and  _294
REMARK  128  A    between atoms: _294  and  _295
REMARK  129  A    between atoms: _298  and  _300
REMARK  130  A    between atoms: _300  and  _301
REMARK  131  A    between atoms: _303  and  _305
REMARK  132  A    between atoms: _305  and  _306
REMARK  133  A    between atoms: _308  and  _310
REMARK  134  A    between atoms: _310  and  _311
REMARK  135  A    between atoms: _310  and  _313
REMARK  136  A    between atoms: _313  and  _314
REMARK  137  A    between atoms: _317  and  _319
REMARK  138  A    between atoms: _319  and  _320
REMARK  139  A    between atoms: _319  and  _322
REMARK  140  A    between atoms: _322  and  _323
REMARK  141  A    between atoms: _325  and  _327
REMARK  142  A    between atoms: _327  and  _328
REMARK  143  A    between atoms: _327  and  _330
REMARK  144  A    between atoms: _330  and  _331
REMARK  145  A    between atoms: _336  and  _338
REMARK  146  A    between atoms: _338  and  _339
REMARK  147  A    between atoms: _338  and  _341
REMARK  148  A    between atoms: _341  and  _342
REMARK  149  A    between atoms: _345  and  _347
REMARK  150  A    between atoms: _347  and  _348
REMARK  151  A    between atoms: _351  and  _353
REMARK  152  A    between atoms: _353  and  _354
REMARK  153  A    between atoms: _353  and  _356
REMARK  154  A    between atoms: _356  and  _357
REMARK  155  A    between atoms: _359  and  _361
REMARK  156  A    between atoms: _361  and  _362
REMARK  157  A    between atoms: _361  and  _364
REMARK  158  A    between atoms: _364  and  _365
REMARK  159  A    between atoms: _367  and  _369
REMARK  160  A    between atoms: _369  and  _370
REMARK  161  A    between atoms: _369  and  _372
REMARK  162  A    between atoms: _372  and  _373
REMARK  163  A    between atoms: _373  and  _374
REMARK  164  A    between atoms: _379  and  _381
REMARK  165  A    between atoms: _381  and  _382
REMARK  166  A    between atoms: _381  and  _384
REMARK  167  A    between atoms: _384  and  _385
REMARK  168  A    between atoms: _388  and  _390
REMARK  169  A    between atoms: _390  and  _391
REMARK  170  A    between atoms: _390  and  _393
REMARK  171  A    between atoms: _393  and  _394
REMARK  172  A    between atoms: _400  and  _402
REMARK  173  A    between atoms: _402  and  _403
REMARK  174  A    between atoms: _402  and  _405
REMARK  175  A    between atoms: _405  and  _406
REMARK  176  A    between atoms: _409  and  _411
REMARK  177  A    between atoms: _411  and  _412
REMARK  178  A    between atoms: _411  and  _414
REMARK  179  A    between atoms: _414  and  _415
REMARK  180  A    between atoms: _418  and  _420
REMARK  181  A    between atoms: _420  and  _421
REMARK  182  A    between atoms: _420  and  _423
REMARK  183  A    between atoms: _423  and  _424
REMARK  184  A    between atoms: _424  and  _425
REMARK  185  A    between atoms: _428  and  _430
REMARK  186  A    between atoms: _430  and  _431
REMARK  187  A    between atoms: _430  and  _433
REMARK  188  A    between atoms: _433  and  _434
REMARK  189  A    between atoms: _439  and  _440
REMARK  190  A    between atoms: _442  and  _444
REMARK  191  A    between atoms: _444  and  _445
REMARK  192  A    between atoms: _444  and  _447
REMARK  193  A    between atoms: _447  and  _448
REMARK  194  A    between atoms: _451  and  _453
REMARK  195  A    between atoms: _453  and  _454
REMARK  196  A    between atoms: _453  and  _456
REMARK  197  A    between atoms: _456  and  _457
REMARK  198  A    between atoms: _457  and  _458
REMARK  199  A    between atoms: _463  and  _465
REMARK  200  A    between atoms: _465  and  _466
REMARK  201  A    between atoms: _465  and  _468
REMARK  202  A    between atoms: _468  and  _469
REMARK  203  A    between atoms: _474  and  _475
REMARK  204  A    between atoms: _477  and  _479
REMARK  205  A    between atoms: _479  and  _480
REMARK  206  A    between atoms: _479  and  _482
REMARK  207  A    between atoms: _482  and  _483
REMARK  208  A    between atoms: _486  and  _488
REMARK  209  A    between atoms: _488  and  _489
REMARK  210  A    between atoms: _488  and  _491
REMARK  211  A    between atoms: _491  and  _492
REMARK  212  A    between atoms: _497  and  _498
REMARK  213  A    between atoms: _500  and  _502
REMARK  214  A    between atoms: _502  and  _503
REMARK  215  A    between atoms: _502  and  _505
REMARK  216  A    between atoms: _505  and  _506
REMARK  217  A    between atoms: _511  and  _512
REMARK  218  A    between atoms: _515  and  _516
REMARK  219  A    between atoms: _521  and  _523
REMARK  220  A    between atoms: _523  and  _524
REMARK  221  A    between atoms: _523  and  _526
REMARK  222  A    between atoms: _526  and  _527
REMARK  223  A    between atoms: _530  and  _532
REMARK  224  A    between atoms: _532  and  _533
REMARK  225  A    between atoms: _532  and  _535
REMARK  226  A    between atoms: _535  and  _536
REMARK                            x       y       z     vdW  Elec       q    Type
REMARK                         _______ _______ _______ _____ _____    ______ ____
ROOT
ATOM      1  CA  THR A   5      28.145  38.998  30.683  0.00  0.00    +0.176 C 
ENDROOT
BRANCH   1   2
ATOM      2  C   THR A   5      28.997  40.109  30.095  0.00  0.00    +0.243 C 
ATOM      3  O   THR A   5      29.858  40.658  30.782  0.00  0.00    -0.273 OA
ATOM      4  N   GLY A   6      28.769  40.447  28.837  0.00  0.00    -0.295 N 
ATOM      5  H   GLY A   6      27.994  39.992  28.314  0.00  0.00    +0.150 HD
BRANCH   4   6
ATOM      6  CA  GLY A   6      29.586  41.443  28.180  0.00  0.00    +0.176 C 
BRANCH   6   7
ATOM      7  C   GLY A   6      29.072  41.653  26.779  0.00  0.00    +0.243 C 
ATOM      8  O   GLY A   6      28.212  40.898  26.317  0.00  0.00    -0.273 OA
ATOM      9  N   SER A   7      29.585  42.678  26.110  0.00  0.00    -0.295 N 
ATOM     10  H   SER A   7      30.237  43.321  26.603  0.00  0.00    +0.150 HD
BRANCH   9  11
ATOM     11  CA  SER A   7      29.270  42.937  24.713  0.00  0.00    +0.178 C 
BRANCH  11  12
ATOM     12  C   SER A   7      30.532  42.937  23.891  0.00  0.00    +0.243 C 
ATOM     13  O   SER A   7      31.573  43.446  24.323  0.00  0.00    -0.273 OA
ATOM     14  N   ARG A   8      30.418  42.401  22.681  0.00  0.00    -0.298 N 
ATOM     15  H   ARG A   8      29.467  42.179  22.324  0.00  0.00    +0.150 HD
BRANCH  14  16
ATOM     16  CA  ARG A   8      31.568  42.110  21.830  0.00  0.00    +0.137 C 
BRANCH  16  17
ATOM     17  C   ARG A   8      31.266  42.624  20.429  0.00  0.00    +0.227 C 
ATOM     18  O   ARG A   8      30.342  42.128  19.734  0.00  0.00    -0.286 OA
ENDBRANCH  16  17
BRANCH  16  19
ATOM     19  CB  ARG A   8      31.793  40.596  21.754  0.00  0.00    +0.031 C 
BRANCH  19  20
ATOM     20  CG  ARG A   8      32.448  39.924  22.940  0.00  0.00    +0.045 C 
BRANCH  20  21
ATOM     21  CD  ARG A   8      31.590  39.725  24.224  0.00  0.00    +0.174 C 
BRANCH  21  22
ATOM     22  NE  ARG A   8      30.494  38.787  24.090  0.00  0.00    -0.265 N 
ATOM     23  CZ  ARG A   8      29.844  38.186  25.088  0.00  0.00    +0.342 C 
ATOM     24  NH2 ARG A   8      30.174  38.336  26.368  0.00  0.00    -0.292 N 
ATOM     25 HH21 ARG A   8      29.632  37.843  27.106  0.00  0.00    +0.255 HD
ATOM     26 HH22 ARG A   8      30.974  38.946  26.631  0.00  0.00    +0.255 HD
ATOM     27  NH1 ARG A   8      28.862  37.387  24.786  0.00  0.00    -0.292 N 
ATOM     28 HH11 ARG A   8      28.335  36.903  25.540  0.00  0.00    +0.255 HD
ATOM     29 HH12 ARG A   8      28.605  37.233  23.790  0.00  0.00    +0.255 HD
ATOM     30  HE  ARG A   8      30.184  38.561  23.123  0.00  0.00    +0.259 HD
ENDBRANCH  21  22
ENDBRANCH  20  21
ENDBRANCH  19  20
ENDBRANCH  16  19
ENDBRANCH  14  16
ENDBRANCH  11  12
BRANCH  11  31
ATOM     31  CB  SER A   7      28.558  44.298  24.526  0.00  0.00    +0.166 C 
BRANCH  31  32
ATOM     32  OG  SER A   7      27.324  44.308  25.221  0.00  0.00    -0.380 OA
ATOM     33  H   SER A   7      27.489  44.159  26.186  0.00  0.00    +0.211 HD
ENDBRANCH  31  32
ENDBRANCH  11  31
ENDBRANCH   9  11
ENDBRANCH   6   7
ENDBRANCH   4   6
ENDBRANCH   1   2
BRANCH   1  36
ATOM     34  C   SER A   4      25.793  38.878  30.198  0.00  0.00    +0.243 C 
ATOM     35  O   SER A   4      25.567  39.572  31.201  0.00  0.00    -0.273 OA
ATOM     36  N   THR A   5      27.033  38.595  29.824  0.00  0.00    -0.295 N 
ATOM     37  H   THR A   5      27.212  38.093  28.931  0.00  0.00    +0.150 HD
BRANCH  34  38
ATOM     38  CA  SER A   4      24.631  38.370  29.320  0.00  0.00    +0.178 C 
BRANCH  38  40
ATOM     39  C   GLY A   3      25.257  39.234  27.147  0.00  0.00    +0.243 C 
ATOM     40  N   SER A   4      24.991  38.184  27.915  0.00  0.00    -0.295 N 
ATOM     41  H   SER A   4      25.039  37.225  27.515  0.00  0.00    +0.150 HD
ATOM     42  O   GLY A   3      25.245  40.406  27.570  0.00  0.00    -0.273 OA
BRANCH  39  43
ATOM     43  CA  GLY A   3      25.566  38.917  25.700  0.00  0.00    +0.176 C 
BRANCH  43  45
ATOM     44  C   ALA A   2      24.821  40.734  24.273  0.00  0.00    +0.241 C 
ATOM     45  N   GLY A   3      25.803  40.102  24.911  0.00  0.00    -0.295 N 
ATOM     46  H   GLY A   3      26.772  40.474  24.839  0.00  0.00    +0.150 HD
ATOM     47  O   ALA A   2      23.622  40.436  24.401  0.00  0.00    -0.273 OA
BRANCH  44  48
ATOM     48  CA  ALA A   2      25.274  41.867  23.380  0.00  0.00    +0.149 C 
ATOM     49  CB  ALA A   2      24.218  42.969  23.274  0.00  0.00    +0.031 C 
BRANCH  48  52
ATOM     50  C   ASP A   1      26.845  40.993  21.730  0.00  0.00    +0.239 C 
ATOM     51  O   ASP A   1      27.819  41.149  22.473  0.00  0.00    -0.274 OA
ATOM     52  N   ALA A   2      25.598  41.321  22.073  0.00  0.00    -0.297 N 
ATOM     53  H   ALA A   2      24.833  41.181  21.382  0.00  0.00    +0.150 HD
BRANCH  50  54
ATOM     54  CA  ASP A   1      27.020  40.425  20.320  0.00  0.00    +0.156 C 
BRANCH  54  55
ATOM     55  N   ASP A   1      27.590  41.473  19.509  0.00  0.00    -0.238 NA
ATOM     56  H   ASP A   1      28.623  41.592  19.520  0.00  0.00    +0.142 HD
ENDBRANCH  54  55
BRANCH  54  57
ATOM     57  CB  ASP A   1      27.932  39.174  20.298  0.00  0.00    +0.140 C 
BRANCH  57  58
ATOM     58  CG  ASP A   1      27.630  38.179  21.434  0.00  0.00    +0.367 C 
ATOM     59  OD2 ASP A   1      26.516  38.181  21.985  0.00  0.00    -0.246 OA
ATOM     60  OD1 ASP A   1      28.524  37.375  21.773  0.00  0.00    -0.246 OA
ENDBRANCH  57  58
ENDBRANCH  54  57
ENDBRANCH  50  54
ENDBRANCH  48  52
ENDBRANCH  44  48
ENDBRANCH  43  45
ENDBRANCH  39  43
ENDBRANCH  38  40
BRANCH  38  61
ATOM     61  CB  SER A   4      24.008  37.086  29.885  0.00  0.00    +0.166 C 
BRANCH  61  62
ATOM     62  OG  SER A   4      24.937  36.056  29.755  0.00  0.00    -0.380 OA
ATOM     63  H   SER A   4      24.552  35.218  30.115  0.00  0.00    +0.211 HD
ENDBRANCH  61  62
ENDBRANCH  38  61
ENDBRANCH  34  38
ENDBRANCH   1  36
BRANCH   1  64
ATOM     64  CB  THR A   5      29.063  37.787  31.096  0.00  0.00    +0.137 C 
ATOM     65  CG2 THR A   5      28.264  36.687  31.821  0.00  0.00    +0.034 C 
BRANCH  64  66
ATOM     66  OG1 THR A   5      29.672  37.237  29.933  0.00  0.00    -0.382 OA
ATOM     67  HG1 THR A   5      28.969  36.922  29.311  0.00  0.00    +0.210 HD
ENDBRANCH  64  66
ENDBRANCH   1  64
TORSDOF 28
REMARK  Name = ../refined-set-2016/3aaq/3aaq_pocket.pdb
REMARK  226 active torsions:
REMARK  status: ('A' for Active; 'I' for Inactive)
REMARK    1  A    between atoms: _1  and  _3
REMARK    2  A    between atoms: _3  and  _4
REMARK    3  A    between atoms: _3  and  _6
REMARK    4  A    between atoms: _6  and  _7
REMARK    5  A    between atoms: _10  and  _12
REMARK    6  A    between atoms: _12  and  _13
REMARK    7  A    between atoms: _16  and  _18
REMARK    8  A    between atoms: _18  and  _19
REMARK    9  A    between atoms: _21  and  _23
REMARK   10  A    between atoms: _23  and  _24
REMARK   11  A    between atoms: _23  and  _26
REMARK   12  A    between atoms: _26  and  _27
REMARK   13  A    between atoms: _29  and  _31
REMARK   14  A    between atoms: _31  and  _32
REMARK   15  A    between atoms: _31  and  _34
REMARK   16  A    between atoms: _34  and  _35
REMARK   17  A    between atoms: _38  and  _40
REMARK   18  A    between atoms: _40  and  _41
REMARK   19  A    between atoms: _43  and  _45
REMARK   20  A    between atoms: _45  and  _46
REMARK   21  A    between atoms: _45  and  _48
REMARK   22  A    between atoms: _48  and  _49
REMARK   23  A    between atoms: _51  and  _53
REMARK   24  A    between atoms: _53  and  _54
REMARK   25  A    between atoms: _53  and  _56
REMARK   26  A    between atoms: _56  and  _57
REMARK   27  A    between atoms: _57  and  _58
REMARK   28  A    between atoms: _58  and  _59
REMARK   29  A    between atoms: _68  and  _70
REMARK   30  A    between atoms: _70  and  _71
REMARK   31  A    between atoms: _70  and  _73
REMARK   32  A    between atoms: _73  and  _74
REMARK   33  A    between atoms: _74  and  _75
REMARK   34  A    between atoms: _75  and  _76
REMARK   35  A    between atoms: _76  and  _77
REMARK   36  A    between atoms: _81  and  _83
REMARK   37  A    between atoms: _83  and  _84
REMARK   38  A    between atoms: _83  and  _86
REMARK   39  A    between atoms: _86  and  _87
REMARK   40  A    between atoms: _90  and  _92
REMARK   41  A    between atoms: _92  and  _93
REMARK   42  A    between atoms: _92  and  _95
REMARK   43  A    between atoms: _95  and  _96
REMARK   44  A    between atoms: _96  and  _97
REMARK   45  A    between atoms: _97  and  _98
REMARK   46  A    between atoms: _98  and  _99
REMARK   47  A    between atoms: _104  and  _105
REMARK   48  A    between atoms: _110  and  _112
REMARK   49  A    between atoms: _112  and  _113
REMARK   50  A    between atoms: _115  and  _117
REMARK   51  A    between atoms: _117  and  _118
REMARK   52  A    between atoms: _117  and  _120
REMARK   53  A    between atoms: _120  and  _121
REMARK   54  A    between atoms: _127  and  _129
REMARK   55  A    between atoms: _129  and  _130
REMARK   56  A    between atoms: _129  and  _132
REMARK   57  A    between atoms: _132  and  _133
REMARK   58  A    between atoms: _136  and  _138
REMARK   59  A    between atoms: _138  and  _139
REMARK   60  A    between atoms: _142  and  _144
REMARK   61  A    between atoms: _144  and  _145
REMARK   62  A    between atoms: _147  and  _149
REMARK   63  A    between atoms: _149  and  _150
REMARK   64  A    between atoms: _149  and  _152
REMARK   65  A    between atoms: _152  and  _153
REMARK   66  A    between atoms: _153  and  _154
REMARK   67  A    between atoms: _156  and  _158
REMARK   68  A    between atoms: _158  and  _159
REMARK   69  A    between atoms: _158  and  _161
REMARK   70  A    between atoms: _161  and  _162
REMARK   71  A    between atoms: _162  and  _163
REMARK   72  A    between atoms: _163  and  _164
REMARK   73  A    between atoms: _173  and  _175
REMARK   74  A    between atoms: _175  and  _176
REMARK   75  A    between atoms: _175  and  _178
REMARK   76  A    between atoms: _178  and  _179
REMARK   77  A    between atoms: _179  and  _180
REMARK   78  A    between atoms: _183  and  _185
REMARK   79  A    between atoms: _185  and  _186
REMARK   80  A    between atoms: _185  and  _188
REMARK   81  A    between atoms: _188  and  _189
REMARK   82  A    between atoms: _192  and  _194
REMARK   83  A    between atoms: _194  and  _195
REMARK   84  A    between atoms: _194  and  _197
REMARK   85  A    between atoms: _197  and  _198
REMARK   86  A    between atoms: _198  and  _199
REMARK   87  A    between atoms: _201  and  _203
REMARK   88  A    between atoms: _203  and  _204
REMARK   89  A    between atoms: _206  and  _208
REMARK   90  A    between atoms: _208  and  _209
REMARK   91  A    between atoms: _211  and  _213
REMARK   92  A    between atoms: _213  and  _214
REMARK   93  A    between atoms: _217  and  _219
REMARK   94  A    between atoms: _219  and  _220
REMARK   95  A    between atoms: _219  and  _222
REMARK   96  A    between atoms: _222  and  _223
REMARK   97  A    between atoms: _225  and  _227
REMARK   98  A    between atoms: _227  and  _228
REMARK   99  A    between atoms: _227  and  _230
REMARK  100  A    between atoms: _233  and  _235
REMARK  101  A    between atoms: _235  and  _236
REMARK  102  A    between atoms: _235  and  _238
REMARK  103  A    between atoms: _238  and  _239
REMARK  104  A    between atoms: _239  and  _240
REMARK  105  A    between atoms: _245  and  _247
REMARK  106  A    between atoms: _247  and  _248
REMARK  107  A    between atoms: _250  and  _252
REMARK  108  A    between atoms: _252  and  _253
REMARK  109  A    between atoms: _252  and  _255
REMARK  110  A    between atoms: _255  and  _256
REMARK  111  A    between atoms: _256  and  _257
REMARK  112  A    between atoms: _262  and  _264
REMARK  113  A    between atoms: _264  and  _265
REMARK  114  A    between atoms: _264  and  _267
REMARK  115  A    between atoms: _267  and  _268
REMARK  116  A    between atoms: _271  and  _273
REMARK  117  A    between atoms: _273  and  _274
REMARK  118  A    between atoms: _273  and  _276
REMARK  119  A    between atoms: _276  and  _277
REMARK  120  A    between atoms: _277  and  _278
REMARK  121  A    between atoms: _281  and  _283
REMARK  122  A    between atoms: _283  and  _284
REMARK  123  A    between atoms: _283  and  _286
REMARK  124  A    between atoms: _286  and  _287
REMARK  125  A    between atoms: _289  and  _291
REMARK  126  A    between atoms: _291  and  _292
REMARK  127  A    between atoms: _291  and  _294
REMARK  128  A    between atoms: _294  and  _295
REMARK  129  A    between atoms: _298  and  _300
REMARK  130  A    between atoms: _300  and  _301
REMARK  131  A    between atoms: _303  and  _305
REMARK  132  A    between atoms: _305  and  _306
REMARK  133  A    between atoms: _308  and  _310
REMARK  134  A    between atoms: _310  and  _311
REMARK  135  A    between atoms: _310  and  _313
REMARK  136  A    between atoms: _313  and  _314
REMARK  137  A    between atoms: _317  and  _319
REMARK  138  A    between atoms: _319  and  _320
REMARK  139  A    between atoms: _319  and  _322
REMARK  140  A    between atoms: _322  and  _323
REMARK  141  A    between atoms: _325  and  _327
REMARK  142  A    between atoms: _327  and  _328
REMARK  143  A    between atoms: _327  and  _330
REMARK  144  A    between atoms: _330  and  _331
REMARK  145  A    between atoms: _336  and  _338
REMARK  146  A    between atoms: _338  and  _339
REMARK  147  A    between atoms: _338  and  _341
REMARK  148  A    between atoms: _341  and  _342
REMARK  149  A    between atoms: _345  and  _347
REMARK  150  A    between atoms: _347  and  _348
REMARK  151  A    between atoms: _351  and  _353
REMARK  152  A    between atoms: _353  and  _354
REMARK  153  A    between atoms: _353  and  _356
REMARK  154  A    between atoms: _356  and  _357
REMARK  155  A    between atoms: _359  and  _361
REMARK  156  A    between atoms: _361  and  _362
REMARK  157  A    between atoms: _361  and  _364
REMARK  158  A    between atoms: _364  and  _365
REMARK  159  A    between atoms: _367  and  _369
REMARK  160  A    between atoms: _369  and  _370
REMARK  161  A    between atoms: _369  and  _372
REMARK  162  A    between atoms: _372  and  _373
REMARK  163  A    between atoms: _373  and  _374
REMARK  164  A    between atoms: _379  and  _381
REMARK  165  A    between atoms: _381  and  _382
REMARK  166  A    between atoms: _381  and  _384
REMARK  167  A    between atoms: _384  and  _385
REMARK  168  A    between atoms: _388  and  _390
REMARK  169  A    between atoms: _390  and  _391
REMARK  170  A    between atoms: _390  and  _393
REMARK  171  A    between atoms: _393  and  _394
REMARK  172  A    between atoms: _400  and  _402
REMARK  173  A    between atoms: _402  and  _403
REMARK  174  A    between atoms: _402  and  _405
REMARK  175  A    between atoms: _405  and  _406
REMARK  176  A    between atoms: _409  and  _411
REMARK  177  A    between atoms: _411  and  _412
REMARK  178  A    between atoms: _411  and  _414
REMARK  179  A    between atoms: _414  and  _415
REMARK  180  A    between atoms: _418  and  _420
REMARK  181  A    between atoms: _420  and  _421
REMARK  182  A    between atoms: _420  and  _423
REMARK  183  A    between atoms: _423  and  _424
REMARK  184  A    between atoms: _424  and  _425
REMARK  185  A    between atoms: _428  and  _430
REMARK  186  A    between atoms: _430  and  _431
REMARK  187  A    between atoms: _430  and  _433
REMARK  188  A    between atoms: _433  and  _434
REMARK  189  A    between atoms: _439  and  _440
REMARK  190  A    between atoms: _442  and  _444
REMARK  191  A    between atoms: _444  and  _445
REMARK  192  A    between atoms: _444  and  _447
REMARK  193  A    between atoms: _447  and  _448
REMARK  194  A    between atoms: _451  and  _453
REMARK  195  A    between atoms: _453  and  _454
REMARK  196  A    between atoms: _453  and  _456
REMARK  197  A    between atoms: _456  and  _457
REMARK  198  A    between atoms: _457  and  _458
REMARK  199  A    between atoms: _463  and  _465
REMARK  200  A    between atoms: _465  and  _466
REMARK  201  A    between atoms: _465  and  _468
REMARK  202  A    between atoms: _468  and  _469
REMARK  203  A    between atoms: _474  and  _475
REMARK  204  A    between atoms: _477  and  _479
REMARK  205  A    between atoms: _479  and  _480
REMARK  206  A    between atoms: _479  and  _482
REMARK  207  A    between atoms: _482  and  _483
REMARK  208  A    between atoms: _486  and  _488
REMARK  209  A    between atoms: _488  and  _489
REMARK  210  A    between atoms: _488  and  _491
REMARK  211  A    between atoms: _491  and  _492
REMARK  212  A    between atoms: _497  and  _498
REMARK  213  A    between atoms: _500  and  _502
REMARK  214  A    between atoms: _502  and  _503
REMARK  215  A    between atoms: _502  and  _505
REMARK  216  A    between atoms: _505  and  _506
REMARK  217  A    between atoms: _511  and  _512
REMARK  218  A    between atoms: _515  and  _516
REMARK  219  A    between atoms: _521  and  _523
REMARK  220  A    between atoms: _523  and  _524
REMARK  221  A    between atoms: _523  and  _526
REMARK  222  A    between atoms: _526  and  _527
REMARK  223  A    between atoms: _530  and  _532
REMARK  224  A    between atoms: _532  and  _533
REMARK  225  A    between atoms: _532  and  _535
REMARK  226  A    between atoms: _535  and  _536
REMARK                            x       y       z     vdW  Elec       q    Type
REMARK                         _______ _______ _______ _____ _____    ______ ____
ROOT
ATOM      1  CA  LYS A   3      31.819  44.193  30.558  0.00  0.00    +0.149 C 
ENDROOT
BRANCH   1   2
ATOM      2  C   LYS A   3      31.238  45.410  31.271  0.00  0.00    +0.244 C 
ATOM      3  N   PRO A   4      30.098  45.266  31.975  0.00  0.00    -0.272 N 
ATOM      4  CD  PRO A   4      29.425  46.363  32.703  0.00  0.00    +0.094 C 
ATOM      5  CG  PRO A   4      28.269  45.671  33.420  0.00  0.00    +0.024 C 
ATOM      6  CB  PRO A   4      28.564  44.226  33.377  0.00  0.00    +0.031 C 
ATOM      7  CA  PRO A   4      29.332  44.041  32.067  0.00  0.00    +0.152 C 
ATOM      8  O   LYS A   3      31.801  46.485  31.139  0.00  0.00    -0.273 OA
BRANCH   7   9
ATOM      9  C   PRO A   4      28.387  43.949  30.857  0.00  0.00    +0.241 C 
ATOM     10  N   GLY A   5      27.390  43.090  30.947  0.00  0.00    -0.295 N 
ATOM     11  H   GLY A   5      27.317  42.479  31.785  0.00  0.00    +0.150 HD
ATOM     12  O   PRO A   4      28.590  44.633  29.848  0.00  0.00    -0.273 OA
BRANCH  10  13
ATOM     13  CA  GLY A   5      26.396  42.983  29.900  0.00  0.00    +0.176 C 
BRANCH  13  14
ATOM     14  C   GLY A   5      25.535  44.228  29.793  0.00  0.00    +0.243 C 
ATOM     15  O   GLY A   5      25.367  44.971  30.756  0.00  0.00    -0.273 OA
ATOM     16  N   PHE A   6      25.002  44.430  28.593  0.00  0.00    -0.298 N 
ATOM     17  H   PHE A   6      25.244  43.764  27.832  0.00  0.00    +0.150 HD
BRANCH  16  18
ATOM     18  CA  PHE A   6      24.095  45.533  28.279  0.00  0.00    +0.141 C 
BRANCH  18  19
ATOM     19  C   PHE A   6      22.929  45.595  29.243  0.00  0.00    +0.227 C 
ATOM     20  O   PHE A   6      22.624  46.652  29.778  0.00  0.00    -0.286 OA
ENDBRANCH  18  19
BRANCH  18  21
ATOM     21  CB  PHE A   6      23.594  45.367  26.840  0.00  0.00    +0.054 C 
BRANCH  21  22
ATOM     22  CG  PHE A   6      22.966  46.594  26.258  0.00  0.00    -0.020 A 
ATOM     23  CD2 PHE A   6      23.638  47.824  26.279  0.00  0.00    -0.004 A 
ATOM     24  CE2 PHE A   6      23.079  48.959  25.680  0.00  0.00    -0.000 A 
ATOM     25  CZ  PHE A   6      21.839  48.874  25.051  0.00  0.00    -0.000 A 
ATOM     26  CE1 PHE A   6      21.159  47.642  25.014  0.00  0.00    -0.000 A 
ATOM     27  CD1 PHE A   6      21.730  46.506  25.609  0.00  0.00    -0.004 A 
ENDBRANCH  21  22
ENDBRANCH  18  21
ENDBRANCH  16  18
ENDBRANCH  13  14
ENDBRANCH  10  13
ENDBRANCH   7   9
ENDBRANCH   1   2
BRANCH   1  29
ATOM     28  C   ILE A   2      32.495  44.489  28.231  0.00  0.00    +0.241 C 
ATOM     29  N   LYS A   3      32.694  44.728  29.521  0.00  0.00    -0.297 N 
ATOM     30  H   LYS A   3      33.503  45.318  29.803  0.00  0.00    +0.150 HD
ATOM     31  O   ILE A   2      31.692  43.655  27.823  0.00  0.00    -0.273 OA
BRANCH  28  32
ATOM     32  CA  ILE A   2      33.373  45.266  27.256  0.00  0.00    +0.148 C 
BRANCH  32  35
ATOM     33  C   LYS A   1      34.852  44.264  25.580  0.00  0.00    +0.238 C 
ATOM     34  O   LYS A   1      35.881  44.736  26.094  0.00  0.00    -0.274 OA
ATOM     35  N   ILE A   2      33.625  44.472  26.061  0.00  0.00    -0.297 N 
ATOM     36  H   ILE A   2      32.816  44.050  25.563  0.00  0.00    +0.150 HD
BRANCH  33  37
ATOM     37  CA  LYS A   1      34.937  43.401  24.322  0.00  0.00    +0.145 C 
BRANCH  37  38
ATOM     38  N   LYS A   1      35.738  44.093  23.337  0.00  0.00    -0.238 NA
ATOM     39  H   LYS A   1      36.675  44.451  23.611  0.00  0.00    +0.142 HD
ENDBRANCH  37  38
BRANCH  37  40
ATOM     40  CB  LYS A   1      35.525  41.998  24.586  0.00  0.00    +0.026 C 
BRANCH  40  41
ATOM     41  CG  LYS A   1      35.080  41.300  25.893  0.00  0.00    -0.000 C 
BRANCH  41  42
ATOM     42  CD  LYS A   1      33.542  41.181  26.004  0.00  0.00    -0.024 C 
BRANCH  42  43
ATOM     43  CE  LYS A   1      33.074  40.633  27.332  0.00  0.00    -0.086 C 
BRANCH  43  44
ATOM     44  NZ  LYS A   1      33.042  39.162  27.302  0.00  0.00    +0.380 N 
ATOM     45  HZ1 LYS A   1      32.718  38.805  28.223  0.00  0.00    -0.089 HD
ATOM     46  HZ2 LYS A   1      33.997  38.800  27.105  0.00  0.00    -0.089 HD
ATOM     47  HZ3 LYS A   1      32.389  38.846  26.557  0.00  0.00    -0.089 HD
ENDBRANCH  43  44
ENDBRANCH  42  43
ENDBRANCH  41  42
ENDBRANCH  40  41
ENDBRANCH  37  40
ENDBRANCH  33  37
ENDBRANCH  32  35
BRANCH  32  48
ATOM     48  CB  ILE A   2      32.792  46.700  26.906  0.00  0.00    +0.027 C 
ATOM     49  CG2 ILE A   2      31.466  46.618  26.141  0.00  0.00    +0.002 C 
BRANCH  48  50
ATOM     50  CG1 ILE A   2      32.636  47.563  28.164  0.00  0.00    +0.002 C 
ATOM     51  CD1 ILE A   2      31.992  48.958  27.914  0.00  0.00    +0.000 C 
ENDBRANCH  48  50
ENDBRANCH  32  48
ENDBRANCH  28  32
ENDBRANCH   1  29
BRANCH   1  52
ATOM     52  CB  LYS A   3      32.616  43.303  31.526  0.00  0.00    +0.029 C 
BRANCH  52  53
ATOM     53  CG  LYS A   3      33.424  42.206  30.819  0.00  0.00    +0.000 C 
BRANCH  53  54
ATOM     54  CD  LYS A   3      33.716  41.047  31.769  0.00  0.00    -0.024 C 
BRANCH  54  55
ATOM     55  CE  LYS A   3      34.013  39.777  30.986  0.00  0.00    -0.086 C 
BRANCH  55  56
ATOM     56  NZ  LYS A   3      33.380  38.578  31.646  0.00  0.00    +0.380 N 
ATOM     57  HZ1 LYS A   3      33.758  38.474  32.609  0.00  0.00    -0.089 HD
ATOM     58  HZ2 LYS A   3      32.350  38.712  31.690  0.00  0.00    -0.089 HD
ATOM     59  HZ3 LYS A   3      33.597  37.724  31.093  0.00  0.00    -0.089 HD
ENDBRANCH  55  56
ENDBRANCH  54  55
ENDBRANCH  53  54
ENDBRANCH  52  53
ENDBRANCH   1  52
TORSDOF 25
REMARK  Name = ../refined-set-2016/3aaq/3aaq_pocket.pdb
REMARK  226 active torsions:
REMARK  status: ('A' for Active; 'I' for Inactive)
REMARK    1  A    between atoms: _1  and  _3
REMARK    2  A    between atoms: _3  and  _4
REMARK    3  A    between atoms: _3  and  _6
REMARK    4  A    between atoms: _6  and  _7
REMARK    5  A    between atoms: _10  and  _12
REMARK    6  A    between atoms: _12  and  _13
REMARK    7  A    between atoms: _16  and  _18
REMARK    8  A    between atoms: _18  and  _19
REMARK    9  A    between atoms: _21  and  _23
REMARK   10  A    between atoms: _23  and  _24
REMARK   11  A    between atoms: _23  and  _26
REMARK   12  A    between atoms: _26  and  _27
REMARK   13  A    between atoms: _29  and  _31
REMARK   14  A    between atoms: _31  and  _32
REMARK   15  A    between atoms: _31  and  _34
REMARK   16  A    between atoms: _34  and  _35
REMARK   17  A    between atoms: _38  and  _40
REMARK   18  A    between atoms: _40  and  _41
REMARK   19  A    between atoms: _43  and  _45
REMARK   20  A    between atoms: _45  and  _46
REMARK   21  A    between atoms: _45  and  _48
REMARK   22  A    between atoms: _48  and  _49
REMARK   23  A    between atoms: _51  and  _53
REMARK   24  A    between atoms: _53  and  _54
REMARK   25  A    between atoms: _53  and  _56
REMARK   26  A    between atoms: _56  and  _57
REMARK   27  A    between atoms: _57  and  _58
REMARK   28  A    between atoms: _58  and  _59
REMARK   29  A    between atoms: _68  and  _70
REMARK   30  A    between atoms: _70  and  _71
REMARK   31  A    between atoms: _70  and  _73
REMARK   32  A    between atoms: _73  and  _74
REMARK   33  A    between atoms: _74  and  _75
REMARK   34  A    between atoms: _75  and  _76
REMARK   35  A    between atoms: _76  and  _77
REMARK   36  A    between atoms: _81  and  _83
REMARK   37  A    between atoms: _83  and  _84
REMARK   38  A    between atoms: _83  and  _86
REMARK   39  A    between atoms: _86  and  _87
REMARK   40  A    between atoms: _90  and  _92
REMARK   41  A    between atoms: _92  and  _93
REMARK   42  A    between atoms: _92  and  _95
REMARK   43  A    between atoms: _95  and  _96
REMARK   44  A    between atoms: _96  and  _97
REMARK   45  A    between atoms: _97  and  _98
REMARK   46  A    between atoms: _98  and  _99
REMARK   47  A    between atoms: _104  and  _105
REMARK   48  A    between atoms: _110  and  _112
REMARK   49  A    between atoms: _112  and  _113
REMARK   50  A    between atoms: _115  and  _117
REMARK   51  A    between atoms: _117  and  _118
REMARK   52  A    between atoms: _117  and  _120
REMARK   53  A    between atoms: _120  and  _121
REMARK   54  A    between atoms: _127  and  _129
REMARK   55  A    between atoms: _129  and  _130
REMARK   56  A    between atoms: _129  and  _132
REMARK   57  A    between atoms: _132  and  _133
REMARK   58  A    between atoms: _136  and  _138
REMARK   59  A    between atoms: _138  and  _139
REMARK   60  A    between atoms: _142  and  _144
REMARK   61  A    between atoms: _144  and  _145
REMARK   62  A    between atoms: _147  and  _149
REMARK   63  A    between atoms: _149  and  _150
REMARK   64  A    between atoms: _149  and  _152
REMARK   65  A    between atoms: _152  and  _153
REMARK   66  A    between atoms: _153  and  _154
REMARK   67  A    between atoms: _156  and  _158
REMARK   68  A    between atoms: _158  and  _159
REMARK   69  A    between atoms: _158  and  _161
REMARK   70  A    between atoms: _161  and  _162
REMARK   71  A    between atoms: _162  and  _163
REMARK   72  A    between atoms: _163  and  _164
REMARK   73  A    between atoms: _173  and  _175
REMARK   74  A    between atoms: _175  and  _176
REMARK   75  A    between atoms: _175  and  _178
REMARK   76  A    between atoms: _178  and  _179
REMARK   77  A    between atoms: _179  and  _180
REMARK   78  A    between atoms: _183  and  _185
REMARK   79  A    between atoms: _185  and  _186
REMARK   80  A    between atoms: _185  and  _188
REMARK   81  A    between atoms: _188  and  _189
REMARK   82  A    between atoms: _192  and  _194
REMARK   83  A    between atoms: _194  and  _195
REMARK   84  A    between atoms: _194  and  _197
REMARK   85  A    between atoms: _197  and  _198
REMARK   86  A    between atoms: _198  and  _199
REMARK   87  A    between atoms: _201  and  _203
REMARK   88  A    between atoms: _203  and  _204
REMARK   89  A    between atoms: _206  and  _208
REMARK   90  A    between atoms: _208  and  _209
REMARK   91  A    between atoms: _211  and  _213
REMARK   92  A    between atoms: _213  and  _214
REMARK   93  A    between atoms: _217  and  _219
REMARK   94  A    between atoms: _219  and  _220
REMARK   95  A    between atoms: _219  and  _222
REMARK   96  A    between atoms: _222  and  _223
REMARK   97  A    between atoms: _225  and  _227
REMARK   98  A    between atoms: _227  and  _228
REMARK   99  A    between atoms: _227  and  _230
REMARK  100  A    between atoms: _233  and  _235
REMARK  101  A    between atoms: _235  and  _236
REMARK  102  A    between atoms: _235  and  _238
REMARK  103  A    between atoms: _238  and  _239
REMARK  104  A    between atoms: _239  and  _240
REMARK  105  A    between atoms: _245  and  _247
REMARK  106  A    between atoms: _247  and  _248
REMARK  107  A    between atoms: _250  and  _252
REMARK  108  A    between atoms: _252  and  _253
REMARK  109  A    between atoms: _252  and  _255
REMARK  110  A    between atoms: _255  and  _256
REMARK  111  A    between atoms: _256  and  _257
REMARK  112  A    between atoms: _262  and  _264
REMARK  113  A    between atoms: _264  and  _265
REMARK  114  A    between atoms: _264  and  _267
REMARK  115  A    between atoms: _267  and  _268
REMARK  116  A    between atoms: _271  and  _273
REMARK  117  A    between atoms: _273  and  _274
REMARK  118  A    between atoms: _273  and  _276
REMARK  119  A    between atoms: _276  and  _277
REMARK  120  A    between atoms: _277  and  _278
REMARK  121  A    between atoms: _281  and  _283
REMARK  122  A    between atoms: _283  and  _284
REMARK  123  A    between atoms: _283  and  _286
REMARK  124  A    between atoms: _286  and  _287
REMARK  125  A    between atoms: _289  and  _291
REMARK  126  A    between atoms: _291  and  _292
REMARK  127  A    between atoms: _291  and  _294
REMARK  128  A    between atoms: _294  and  _295
REMARK  129  A    between atoms: _298  and  _300
REMARK  130  A    between atoms: _300  and  _301
REMARK  131  A    between atoms: _303  and  _305
REMARK  132  A    between atoms: _305  and  _306
REMARK  133  A    between atoms: _308  and  _310
REMARK  134  A    between atoms: _310  and  _311
REMARK  135  A    between atoms: _310  and  _313
REMARK  136  A    between atoms: _313  and  _314
REMARK  137  A    between atoms: _317  and  _319
REMARK  138  A    between atoms: _319  and  _320
REMARK  139  A    between atoms: _319  and  _322
REMARK  140  A    between atoms: _322  and  _323
REMARK  141  A    between atoms: _325  and  _327
REMARK  142  A    between atoms: _327  and  _328
REMARK  143  A    between atoms: _327  and  _330
REMARK  144  A    between atoms: _330  and  _331
REMARK  145  A    between atoms: _336  and  _338
REMARK  146  A    between atoms: _338  and  _339
REMARK  147  A    between atoms: _338  and  _341
REMARK  148  A    between atoms: _341  and  _342
REMARK  149  A    between atoms: _345  and  _347
REMARK  150  A    between atoms: _347  and  _348
REMARK  151  A    between atoms: _351  and  _353
REMARK  152  A    between atoms: _353  and  _354
REMARK  153  A    between atoms: _353  and  _356
REMARK  154  A    between atoms: _356  and  _357
REMARK  155  A    between atoms: _359  and  _361
REMARK  156  A    between atoms: _361  and  _362
REMARK  157  A    between atoms: _361  and  _364
REMARK  158  A    between atoms: _364  and  _365
REMARK  159  A    between atoms: _367  and  _369
REMARK  160  A    between atoms: _369  and  _370
REMARK  161  A    between atoms: _369  and  _372
REMARK  162  A    between atoms: _372  and  _373
REMARK  163  A    between atoms: _373  and  _374
REMARK  164  A    between atoms: _379  and  _381
REMARK  165  A    between atoms: _381  and  _382
REMARK  166  A    between atoms: _381  and  _384
REMARK  167  A    between atoms: _384  and  _385
REMARK  168  A    between atoms: _388  and  _390
REMARK  169  A    between atoms: _390  and  _391
REMARK  170  A    between atoms: _390  and  _393
REMARK  171  A    between atoms: _393  and  _394
REMARK  172  A    between atoms: _400  and  _402
REMARK  173  A    between atoms: _402  and  _403
REMARK  174  A    between atoms: _402  and  _405
REMARK  175  A    between atoms: _405  and  _406
REMARK  176  A    between atoms: _409  and  _411
REMARK  177  A    between atoms: _411  and  _412
REMARK  178  A    between atoms: _411  and  _414
REMARK  179  A    between atoms: _414  and  _415
REMARK  180  A    between atoms: _418  and  _420
REMARK  181  A    between atoms: _420  and  _421
REMARK  182  A    between atoms: _420  and  _423
REMARK  183  A    between atoms: _423  and  _424
REMARK  184  A    between atoms: _424  and  _425
REMARK  185  A    between atoms: _428  and  _430
REMARK  186  A    between atoms: _430  and  _431
REMARK  187  A    between atoms: _430  and  _433
REMARK  188  A    between atoms: _433  and  _434
REMARK  189  A    between atoms: _439  and  _440
REMARK  190  A    between atoms: _442  and  _444
REMARK  191  A    between atoms: _444  and  _445
REMARK  192  A    between atoms: _444  and  _447
REMARK  193  A    between atoms: _447  and  _448
REMARK  194  A    between atoms: _451  and  _453
REMARK  195  A    between atoms: _453  and  _454
REMARK  196  A    between atoms: _453  and  _456
REMARK  197  A    between atoms: _456  and  _457
REMARK  198  A    between atoms: _457  and  _458
REMARK  199  A    between atoms: _463  and  _465
REMARK  200  A    between atoms: _465  and  _466
REMARK  201  A    between atoms: _465  and  _468
REMARK  202  A    between atoms: _468  and  _469
REMARK  203  A    between atoms: _474  and  _475
REMARK  204  A    between atoms: _477  and  _479
REMARK  205  A    between atoms: _479  and  _480
REMARK  206  A    between atoms: _479  and  _482
REMARK  207  A    between atoms: _482  and  _483
REMARK  208  A    between atoms: _486  and  _488
REMARK  209  A    between atoms: _488  and  _489
REMARK  210  A    between atoms: _488  and  _491
REMARK  211  A    between atoms: _491  and  _492
REMARK  212  A    between atoms: _497  and  _498
REMARK  213  A    between atoms: _500  and  _502
REMARK  214  A    between atoms: _502  and  _503
REMARK  215  A    between atoms: _502  and  _505
REMARK  216  A    between atoms: _505  and  _506
REMARK  217  A    between atoms: _511  and  _512
REMARK  218  A    between atoms: _515  and  _516
REMARK  219  A    between atoms: _521  and  _523
REMARK  220  A    between atoms: _523  and  _524
REMARK  221  A    between atoms: _523  and  _526
REMARK  222  A    between atoms: _526  and  _527
REMARK  223  A    between atoms: _530  and  _532
REMARK  224  A    between atoms: _532  and  _533
REMARK  225  A    between atoms: _532  and  _535
REMARK  226  A    between atoms: _535  and  _536
REMARK                            x       y       z     vdW  Elec       q    Type
REMARK                         _______ _______ _______ _____ _____    ______ ____
ROOT
ATOM      1  CA  MET A   4      18.193  40.800  27.403  0.00  0.00    +0.149 C 
ENDROOT
BRANCH   1   4
ATOM      2  C   GLY A   3      19.504  39.385  28.933  0.00  0.00    +0.243 C 
ATOM      3  O   GLY A   3      18.797  39.651  29.902  0.00  0.00    -0.273 OA
ATOM      4  N   MET A   4      19.294  39.888  27.713  0.00  0.00    -0.297 N 
ATOM      5  H   MET A   4      19.944  39.618  26.947  0.00  0.00    +0.150 HD
BRANCH   2   6
ATOM      6  CA  GLY A   3      20.663  38.417  29.072  0.00  0.00    +0.176 C 
BRANCH   6   9
ATOM      7  C   ALA A   2      19.663  36.613  27.731  0.00  0.00    +0.241 C 
ATOM      8  O   ALA A   2      18.598  36.672  28.336  0.00  0.00    -0.273 OA
ATOM      9  N   GLY A   3      20.706  37.401  28.000  0.00  0.00    -0.295 N 
ATOM     10  H   GLY A   3      21.575  37.297  27.438  0.00  0.00    +0.150 HD
BRANCH   7  11
ATOM     11  CA  ALA A   2      19.807  35.637  26.581  0.00  0.00    +0.149 C 
ATOM     12  CB  ALA A   2      20.241  34.255  27.066  0.00  0.00    +0.031 C 
BRANCH  11  14
ATOM     13  C   THR A   1      20.322  37.211  24.806  0.00  0.00    +0.241 C 
ATOM     14  N   ALA A   2      20.670  36.128  25.493  0.00  0.00    -0.297 N 
ATOM     15  H   ALA A   2      21.552  35.627  25.262  0.00  0.00    +0.150 HD
ATOM     16  O   THR A   1      19.544  38.006  25.233  0.00  0.00    -0.274 OA
BRANCH  13  17
ATOM     17  CA  THR A   1      20.947  37.454  23.434  0.00  0.00    +0.172 C 
BRANCH  17  18
ATOM     18  CB  THR A   1      22.117  36.478  23.087  0.00  0.00    +0.135 C 
ATOM     19  CG2 THR A   1      22.620  36.687  21.596  0.00  0.00    +0.034 C 
BRANCH  18  20
ATOM     20  OG1 THR A   1      23.203  36.715  23.976  0.00  0.00    -0.383 OA
ATOM     21  HG1 THR A   1      23.946  36.098  23.759  0.00  0.00    +0.210 HD
ENDBRANCH  18  20
ENDBRANCH  17  18
BRANCH  17  22
ATOM     22  N   THR A   1      21.333  38.842  23.270  0.00  0.00    -0.236 NA
ATOM     23  H   THR A   1      22.013  39.269  23.931  0.00  0.00    +0.142 HD
ENDBRANCH  17  22
ENDBRANCH  13  17
ENDBRANCH  11  14
ENDBRANCH   7  11
ENDBRANCH   6   9
ENDBRANCH   2   6
ENDBRANCH   1   4
BRANCH   1  24
ATOM     24  C   MET A   4      16.854  40.067  27.317  0.00  0.00    +0.241 C 
ATOM     25  O   MET A   4      15.797  40.654  27.607  0.00  0.00    -0.273 OA
ATOM     26  N   ARG A   5      16.893  38.789  26.904  0.00  0.00    -0.298 N 
ATOM     27  H   ARG A   5      17.805  38.378  26.622  0.00  0.00    +0.150 HD
BRANCH  26  28
ATOM     28  CA  ARG A   5      15.697  37.964  26.840  0.00  0.00    +0.137 C 
BRANCH  28  29
ATOM     29  C   ARG A   5      15.054  37.798  28.205  0.00  0.00    +0.227 C 
ATOM     30  O   ARG A   5      13.841  37.666  28.315  0.00  0.00    -0.286 OA
ENDBRANCH  28  29
BRANCH  28  31
ATOM     31  CB  ARG A   5      16.019  36.591  26.219  0.00  0.00    +0.031 C 
BRANCH  31  32
ATOM     32  CG  ARG A   5      16.451  36.764  24.795  0.00  0.00    +0.045 C 
BRANCH  32  33
ATOM     33  CD  ARG A   5      16.183  35.599  23.870  0.00  0.00    +0.174 C 
BRANCH  33  34
ATOM     34  NE  ARG A   5      17.088  34.497  24.077  0.00  0.00    -0.265 N 
ATOM     35  HE  ARG A   5      16.856  33.863  24.868  0.00  0.00    +0.259 HD
ATOM     36  CZ  ARG A   5      18.187  34.185  23.384  0.00  0.00    +0.342 C 
ATOM     37  NH2 ARG A   5      18.833  33.112  23.787  0.00  0.00    -0.292 N 
ATOM     38 HH21 ARG A   5      18.479  32.566  24.599  0.00  0.00    +0.255 HD
ATOM     39 HH22 ARG A   5      19.697  32.810  23.294  0.00  0.00    +0.255 HD
ATOM     40  NH1 ARG A   5      18.658  34.868  22.339  0.00  0.00    -0.292 N 
ATOM     41 HH11 ARG A   5      18.159  35.717  22.005  0.00  0.00    +0.255 HD
ATOM     42 HH12 ARG A   5      19.524  34.551  21.858  0.00  0.00    +0.255 HD
ENDBRANCH  33  34
ENDBRANCH  32  33
ENDBRANCH  31  32
ENDBRANCH  28  31
ENDBRANCH  26  28
ENDBRANCH   1  24
BRANCH   1  43
ATOM     43  CB  MET A   4      18.511  41.550  26.090  0.00  0.00    +0.041 C 
BRANCH  43  44
ATOM     44  CG  MET A   4      17.932  42.938  25.943  0.00  0.00    +0.060 C 
BRANCH  44  45
ATOM     45  SD  MET A   4      18.529  44.245  27.092  0.00  0.00    -0.139 S 
ATOM     46  CE  MET A   4      20.211  43.774  27.155  0.00  0.00    +0.069 C 
ENDBRANCH  44  45
ENDBRANCH  43  44
ENDBRANCH   1  43
TORSDOF 19
REMARK  Name = ../refined-set-2016/3aaq/3aaq_pocket.pdb
REMARK  226 active torsions:
REMARK  status: ('A' for Active; 'I' for Inactive)
REMARK    1  A    between atoms: _1  and  _3
REMARK    2  A    between atoms: _3  and  _4
REMARK    3  A    between atoms: _3  and  _6
REMARK    4  A    between atoms: _6  and  _7
REMARK    5  A    between atoms: _10  and  _12
REMARK    6  A    between atoms: _12  and  _13
REMARK    7  A    between atoms: _16  and  _18
REMARK    8  A    between atoms: _18  and  _19
REMARK    9  A    between atoms: _21  and  _23
REMARK   10  A    between atoms: _23  and  _24
REMARK   11  A    between atoms: _23  and  _26
REMARK   12  A    between atoms: _26  and  _27
REMARK   13  A    between atoms: _29  and  _31
REMARK   14  A    between atoms: _31  and  _32
REMARK   15  A    between atoms: _31  and  _34
REMARK   16  A    between atoms: _34  and  _35
REMARK   17  A    between atoms: _38  and  _40
REMARK   18  A    between atoms: _40  and  _41
REMARK   19  A    between atoms: _43  and  _45
REMARK   20  A    between atoms: _45  and  _46
REMARK   21  A    between atoms: _45  and  _48
REMARK   22  A    between atoms: _48  and  _49
REMARK   23  A    between atoms: _51  and  _53
REMARK   24  A    between atoms: _53  and  _54
REMARK   25  A    between atoms: _53  and  _56
REMARK   26  A    between atoms: _56  and  _57
REMARK   27  A    between atoms: _57  and  _58
REMARK   28  A    between atoms: _58  and  _59
REMARK   29  A    between atoms: _68  and  _70
REMARK   30  A    between atoms: _70  and  _71
REMARK   31  A    between atoms: _70  and  _73
REMARK   32  A    between atoms: _73  and  _74
REMARK   33  A    between atoms: _74  and  _75
REMARK   34  A    between atoms: _75  and  _76
REMARK   35  A    between atoms: _76  and  _77
REMARK   36  A    between atoms: _81  and  _83
REMARK   37  A    between atoms: _83  and  _84
REMARK   38  A    between atoms: _83  and  _86
REMARK   39  A    between atoms: _86  and  _87
REMARK   40  A    between atoms: _90  and  _92
REMARK   41  A    between atoms: _92  and  _93
REMARK   42  A    between atoms: _92  and  _95
REMARK   43  A    between atoms: _95  and  _96
REMARK   44  A    between atoms: _96  and  _97
REMARK   45  A    between atoms: _97  and  _98
REMARK   46  A    between atoms: _98  and  _99
REMARK   47  A    between atoms: _104  and  _105
REMARK   48  A    between atoms: _110  and  _112
REMARK   49  A    between atoms: _112  and  _113
REMARK   50  A    between atoms: _115  and  _117
REMARK   51  A    between atoms: _117  and  _118
REMARK   52  A    between atoms: _117  and  _120
REMARK   53  A    between atoms: _120  and  _121
REMARK   54  A    between atoms: _127  and  _129
REMARK   55  A    between atoms: _129  and  _130
REMARK   56  A    between atoms: _129  and  _132
REMARK   57  A    between atoms: _132  and  _133
REMARK   58  A    between atoms: _136  and  _138
REMARK   59  A    between atoms: _138  and  _139
REMARK   60  A    between atoms: _142  and  _144
REMARK   61  A    between atoms: _144  and  _145
REMARK   62  A    between atoms: _147  and  _149
REMARK   63  A    between atoms: _149  and  _150
REMARK   64  A    between atoms: _149  and  _152
REMARK   65  A    between atoms: _152  and  _153
REMARK   66  A    between atoms: _153  and  _154
REMARK   67  A    between atoms: _156  and  _158
REMARK   68  A    between atoms: _158  and  _159
REMARK   69  A    between atoms: _158  and  _161
REMARK   70  A    between atoms: _161  and  _162
REMARK   71  A    between atoms: _162  and  _163
REMARK   72  A    between atoms: _163  and  _164
REMARK   73  A    between atoms: _173  and  _175
REMARK   74  A    between atoms: _175  and  _176
REMARK   75  A    between atoms: _175  and  _178
REMARK   76  A    between atoms: _178  and  _179
REMARK   77  A    between atoms: _179  and  _180
REMARK   78  A    between atoms: _183  and  _185
REMARK   79  A    between atoms: _185  and  _186
REMARK   80  A    between atoms: _185  and  _188
REMARK   81  A    between atoms: _188  and  _189
REMARK   82  A    between atoms: _192  and  _194
REMARK   83  A    between atoms: _194  and  _195
REMARK   84  A    between atoms: _194  and  _197
REMARK   85  A    between atoms: _197  and  _198
REMARK   86  A    between atoms: _198  and  _199
REMARK   87  A    between atoms: _201  and  _203
REMARK   88  A    between atoms: _203  and  _204
REMARK   89  A    between atoms: _206  and  _208
REMARK   90  A    between atoms: _208  and  _209
REMARK   91  A    between atoms: _211  and  _213
REMARK   92  A    between atoms: _213  and  _214
REMARK   93  A    between atoms: _217  and  _219
REMARK   94  A    between atoms: _219  and  _220
REMARK   95  A    between atoms: _219  and  _222
REMARK   96  A    between atoms: _222  and  _223
REMARK   97  A    between atoms: _225  and  _227
REMARK   98  A    between atoms: _227  and  _228
REMARK   99  A    between atoms: _227  and  _230
REMARK  100  A    between atoms: _233  and  _235
REMARK  101  A    between atoms: _235  and  _236
REMARK  102  A    between atoms: _235  and  _238
REMARK  103  A    between atoms: _238  and  _239
REMARK  104  A    between atoms: _239  and  _240
REMARK  105  A    between atoms: _245  and  _247
REMARK  106  A    between atoms: _247  and  _248
REMARK  107  A    between atoms: _250  and  _252
REMARK  108  A    between atoms: _252  and  _253
REMARK  109  A    between atoms: _252  and  _255
REMARK  110  A    between atoms: _255  and  _256
REMARK  111  A    between atoms: _256  and  _257
REMARK  112  A    between atoms: _262  and  _264
REMARK  113  A    between atoms: _264  and  _265
REMARK  114  A    between atoms: _264  and  _267
REMARK  115  A    between atoms: _267  and  _268
REMARK  116  A    between atoms: _271  and  _273
REMARK  117  A    between atoms: _273  and  _274
REMARK  118  A    between atoms: _273  and  _276
REMARK  119  A    between atoms: _276  and  _277
REMARK  120  A    between atoms: _277  and  _278
REMARK  121  A    between atoms: _281  and  _283
REMARK  122  A    between atoms: _283  and  _284
REMARK  123  A    between atoms: _283  and  _286
REMARK  124  A    between atoms: _286  and  _287
REMARK  125  A    between atoms: _289  and  _291
REMARK  126  A    between atoms: _291  and  _292
REMARK  127  A    between atoms: _291  and  _294
REMARK  128  A    between atoms: _294  and  _295
REMARK  129  A    between atoms: _298  and  _300
REMARK  130  A    between atoms: _300  and  _301
REMARK  131  A    between atoms: _303  and  _305
REMARK  132  A    between atoms: _305  and  _306
REMARK  133  A    between atoms: _308  and  _310
REMARK  134  A    between atoms: _310  and  _311
REMARK  135  A    between atoms: _310  and  _313
REMARK  136  A    between atoms: _313  and  _314
REMARK  137  A    between atoms: _317  and  _319
REMARK  138  A    between atoms: _319  and  _320
REMARK  139  A    between atoms: _319  and  _322
REMARK  140  A    between atoms: _322  and  _323
REMARK  141  A    between atoms: _325  and  _327
REMARK  142  A    between atoms: _327  and  _328
REMARK  143  A    between atoms: _327  and  _330
REMARK  144  A    between atoms: _330  and  _331
REMARK  145  A    between atoms: _336  and  _338
REMARK  146  A    between atoms: _338  and  _339
REMARK  147  A    between atoms: _338  and  _341
REMARK  148  A    between atoms: _341  and  _342
REMARK  149  A    between atoms: _345  and  _347
REMARK  150  A    between atoms: _347  and  _348
REMARK  151  A    between atoms: _351  and  _353
REMARK  152  A    between atoms: _353  and  _354
REMARK  153  A    between atoms: _353  and  _356
REMARK  154  A    between atoms: _356  and  _357
REMARK  155  A    between atoms: _359  and  _361
REMARK  156  A    between atoms: _361  and  _362
REMARK  157  A    between atoms: _361  and  _364
REMARK  158  A    between atoms: _364  and  _365
REMARK  159  A    between atoms: _367  and  _369
REMARK  160  A    between atoms: _369  and  _370
REMARK  161  A    between atoms: _369  and  _372
REMARK  162  A    between atoms: _372  and  _373
REMARK  163  A    between atoms: _373  and  _374
REMARK  164  A    between atoms: _379  and  _381
REMARK  165  A    between atoms: _381  and  _382
REMARK  166  A    between atoms: _381  and  _384
REMARK  167  A    between atoms: _384  and  _385
REMARK  168  A    between atoms: _388  and  _390
REMARK  169  A    between atoms: _390  and  _391
REMARK  170  A    between atoms: _390  and  _393
REMARK  171  A    between atoms: _393  and  _394
REMARK  172  A    between atoms: _400  and  _402
REMARK  173  A    between atoms: _402  and  _403
REMARK  174  A    between atoms: _402  and  _405
REMARK  175  A    between atoms: _405  and  _406
REMARK  176  A    between atoms: _409  and  _411
REMARK  177  A    between atoms: _411  and  _412
REMARK  178  A    between atoms: _411  and  _414
REMARK  179  A    between atoms: _414  and  _415
REMARK  180  A    between atoms: _418  and  _420
REMARK  181  A    between atoms: _420  and  _421
REMARK  182  A    between atoms: _420  and  _423
REMARK  183  A    between atoms: _423  and  _424
REMARK  184  A    between atoms: _424  and  _425
REMARK  185  A    between atoms: _428  and  _430
REMARK  186  A    between atoms: _430  and  _431
REMARK  187  A    between atoms: _430  and  _433
REMARK  188  A    between atoms: _433  and  _434
REMARK  189  A    between atoms: _439  and  _440
REMARK  190  A    between atoms: _442  and  _444
REMARK  191  A    between atoms: _444  and  _445
REMARK  192  A    between atoms: _444  and  _447
REMARK  193  A    between atoms: _447  and  _448
REMARK  194  A    between atoms: _451  and  _453
REMARK  195  A    between atoms: _453  and  _454
REMARK  196  A    between atoms: _453  and  _456
REMARK  197  A    between atoms: _456  and  _457
REMARK  198  A    between atoms: _457  and  _458
REMARK  199  A    between atoms: _463  and  _465
REMARK  200  A    between atoms: _465  and  _466
REMARK  201  A    between atoms: _465  and  _468
REMARK  202  A    between atoms: _468  and  _469
REMARK  203  A    between atoms: _474  and  _475
REMARK  204  A    between atoms: _477  and  _479
REMARK  205  A    between atoms: _479  and  _480
REMARK  206  A    between atoms: _479  and  _482
REMARK  207  A    between atoms: _482  and  _483
REMARK  208  A    between atoms: _486  and  _488
REMARK  209  A    between atoms: _488  and  _489
REMARK  210  A    between atoms: _488  and  _491
REMARK  211  A    between atoms: _491  and  _492
REMARK  212  A    between atoms: _497  and  _498
REMARK  213  A    between atoms: _500  and  _502
REMARK  214  A    between atoms: _502  and  _503
REMARK  215  A    between atoms: _502  and  _505
REMARK  216  A    between atoms: _505  and  _506
REMARK  217  A    between atoms: _511  and  _512
REMARK  218  A    between atoms: _515  and  _516
REMARK  219  A    between atoms: _521  and  _523
REMARK  220  A    between atoms: _523  and  _524
REMARK  221  A    between atoms: _523  and  _526
REMARK  222  A    between atoms: _526  and  _527
REMARK  223  A    between atoms: _530  and  _532
REMARK  224  A    between atoms: _532  and  _533
REMARK  225  A    between atoms: _532  and  _535
REMARK  226  A    between atoms: _535  and  _536
REMARK                            x       y       z     vdW  Elec       q    Type
REMARK                         _______ _______ _______ _____ _____    ______ ____
ROOT
ATOM      1  CA  GLU A   1      20.805  32.380  17.739  0.00  0.00    +0.134 C 
ENDROOT
BRANCH   1   2
ATOM      2  N   GLU A   1      19.467  32.623  17.242  0.00  0.00    -0.239 NA
ATOM      3  H   GLU A   1      18.709  32.818  17.927  0.00  0.00    +0.142 HD
ENDBRANCH   1   2
BRANCH   1   4
ATOM      4  C   GLU A   1      21.252  30.952  17.353  0.00  0.00    +0.224 C 
ATOM      5  O   GLU A   1      22.386  30.782  16.925  0.00  0.00    -0.287 OA
ENDBRANCH   1   4
BRANCH   1   6
ATOM      6  CB  GLU A   1      20.837  32.585  19.268  0.00  0.00    +0.037 C 
BRANCH   6   7
ATOM      7  CG  GLU A   1      22.230  32.547  19.822  0.00  0.00    +0.116 C 
BRANCH   7   8
ATOM      8  CD  GLU A   1      22.292  32.849  21.333  0.00  0.00    +0.365 C 
ATOM      9  OE2 GLU A   1      21.256  33.129  21.971  0.00  0.00    -0.246 OA
ATOM     10  OE1 GLU A   1      23.408  32.785  21.876  0.00  0.00    -0.246 OA
ENDBRANCH   7   8
ENDBRANCH   6   7
ENDBRANCH   1   6
TORSDOF 5
REMARK  Name = ../refined-set-2016/3aaq/3aaq_pocket.pdb
REMARK  226 active torsions:
REMARK  status: ('A' for Active; 'I' for Inactive)
REMARK    1  A    between atoms: _1  and  _3
REMARK    2  A    between atoms: _3  and  _4
REMARK    3  A    between atoms: _3  and  _6
REMARK    4  A    between atoms: _6  and  _7
REMARK    5  A    between atoms: _10  and  _12
REMARK    6  A    between atoms: _12  and  _13
REMARK    7  A    between atoms: _16  and  _18
REMARK    8  A    between atoms: _18  and  _19
REMARK    9  A    between atoms: _21  and  _23
REMARK   10  A    between atoms: _23  and  _24
REMARK   11  A    between atoms: _23  and  _26
REMARK   12  A    between atoms: _26  and  _27
REMARK   13  A    between atoms: _29  and  _31
REMARK   14  A    between atoms: _31  and  _32
REMARK   15  A    between atoms: _31  and  _34
REMARK   16  A    between atoms: _34  and  _35
REMARK   17  A    between atoms: _38  and  _40
REMARK   18  A    between atoms: _40  and  _41
REMARK   19  A    between atoms: _43  and  _45
REMARK   20  A    between atoms: _45  and  _46
REMARK   21  A    between atoms: _45  and  _48
REMARK   22  A    between atoms: _48  and  _49
REMARK   23  A    between atoms: _51  and  _53
REMARK   24  A    between atoms: _53  and  _54
REMARK   25  A    between atoms: _53  and  _56
REMARK   26  A    between atoms: _56  and  _57
REMARK   27  A    between atoms: _57  and  _58
REMARK   28  A    between atoms: _58  and  _59
REMARK   29  A    between atoms: _68  and  _70
REMARK   30  A    between atoms: _70  and  _71
REMARK   31  A    between atoms: _70  and  _73
REMARK   32  A    between atoms: _73  and  _74
REMARK   33  A    between atoms: _74  and  _75
REMARK   34  A    between atoms: _75  and  _76
REMARK   35  A    between atoms: _76  and  _77
REMARK   36  A    between atoms: _81  and  _83
REMARK   37  A    between atoms: _83  and  _84
REMARK   38  A    between atoms: _83  and  _86
REMARK   39  A    between atoms: _86  and  _87
REMARK   40  A    between atoms: _90  and  _92
REMARK   41  A    between atoms: _92  and  _93
REMARK   42  A    between atoms: _92  and  _95
REMARK   43  A    between atoms: _95  and  _96
REMARK   44  A    between atoms: _96  and  _97
REMARK   45  A    between atoms: _97  and  _98
REMARK   46  A    between atoms: _98  and  _99
REMARK   47  A    between atoms: _104  and  _105
REMARK   48  A    between atoms: _110  and  _112
REMARK   49  A    between atoms: _112  and  _113
REMARK   50  A    between atoms: _115  and  _117
REMARK   51  A    between atoms: _117  and  _118
REMARK   52  A    between atoms: _117  and  _120
REMARK   53  A    between atoms: _120  and  _121
REMARK   54  A    between atoms: _127  and  _129
REMARK   55  A    between atoms: _129  and  _130
REMARK   56  A    between atoms: _129  and  _132
REMARK   57  A    between atoms: _132  and  _133
REMARK   58  A    between atoms: _136  and  _138
REMARK   59  A    between atoms: _138  and  _139
REMARK   60  A    between atoms: _142  and  _144
REMARK   61  A    between atoms: _144  and  _145
REMARK   62  A    between atoms: _147  and  _149
REMARK   63  A    between atoms: _149  and  _150
REMARK   64  A    between atoms: _149  and  _152
REMARK   65  A    between atoms: _152  and  _153
REMARK   66  A    between atoms: _153  and  _154
REMARK   67  A    between atoms: _156  and  _158
REMARK   68  A    between atoms: _158  and  _159
REMARK   69  A    between atoms: _158  and  _161
REMARK   70  A    between atoms: _161  and  _162
REMARK   71  A    between atoms: _162  and  _163
REMARK   72  A    between atoms: _163  and  _164
REMARK   73  A    between atoms: _173  and  _175
REMARK   74  A    between atoms: _175  and  _176
REMARK   75  A    between atoms: _175  and  _178
REMARK   76  A    between atoms: _178  and  _179
REMARK   77  A    between atoms: _179  and  _180
REMARK   78  A    between atoms: _183  and  _185
REMARK   79  A    between atoms: _185  and  _186
REMARK   80  A    between atoms: _185  and  _188
REMARK   81  A    between atoms: _188  and  _189
REMARK   82  A    between atoms: _192  and  _194
REMARK   83  A    between atoms: _194  and  _195
REMARK   84  A    between atoms: _194  and  _197
REMARK   85  A    between atoms: _197  and  _198
REMARK   86  A    between atoms: _198  and  _199
REMARK   87  A    between atoms: _201  and  _203
REMARK   88  A    between atoms: _203  and  _204
REMARK   89  A    between atoms: _206  and  _208
REMARK   90  A    between atoms: _208  and  _209
REMARK   91  A    between atoms: _211  and  _213
REMARK   92  A    between atoms: _213  and  _214
REMARK   93  A    between atoms: _217  and  _219
REMARK   94  A    between atoms: _219  and  _220
REMARK   95  A    between atoms: _219  and  _222
REMARK   96  A    between atoms: _222  and  _223
REMARK   97  A    between atoms: _225  and  _227
REMARK   98  A    between atoms: _227  and  _228
REMARK   99  A    between atoms: _227  and  _230
REMARK  100  A    between atoms: _233  and  _235
REMARK  101  A    between atoms: _235  and  _236
REMARK  102  A    between atoms: _235  and  _238
REMARK  103  A    between atoms: _238  and  _239
REMARK  104  A    between atoms: _239  and  _240
REMARK  105  A    between atoms: _245  and  _247
REMARK  106  A    between atoms: _247  and  _248
REMARK  107  A    between atoms: _250  and  _252
REMARK  108  A    between atoms: _252  and  _253
REMARK  109  A    between atoms: _252  and  _255
REMARK  110  A    between atoms: _255  and  _256
REMARK  111  A    between atoms: _256  and  _257
REMARK  112  A    between atoms: _262  and  _264
REMARK  113  A    between atoms: _264  and  _265
REMARK  114  A    between atoms: _264  and  _267
REMARK  115  A    between atoms: _267  and  _268
REMARK  116  A    between atoms: _271  and  _273
REMARK  117  A    between atoms: _273  and  _274
REMARK  118  A    between atoms: _273  and  _276
REMARK  119  A    between atoms: _276  and  _277
REMARK  120  A    between atoms: _277  and  _278
REMARK  121  A    between atoms: _281  and  _283
REMARK  122  A    between atoms: _283  and  _284
REMARK  123  A    between atoms: _283  and  _286
REMARK  124  A    between atoms: _286  and  _287
REMARK  125  A    between atoms: _289  and  _291
REMARK  126  A    between atoms: _291  and  _292
REMARK  127  A    between atoms: _291  and  _294
REMARK  128  A    between atoms: _294  and  _295
REMARK  129  A    between atoms: _298  and  _300
REMARK  130  A    between atoms: _300  and  _301
REMARK  131  A    between atoms: _303  and  _305
REMARK  132  A    between atoms: _305  and  _306
REMARK  133  A    between atoms: _308  and  _310
REMARK  134  A    between atoms: _310  and  _311
REMARK  135  A    between atoms: _310  and  _313
REMARK  136  A    between atoms: _313  and  _314
REMARK  137  A    between atoms: _317  and  _319
REMARK  138  A    between atoms: _319  and  _320
REMARK  139  A    between atoms: _319  and  _322
REMARK  140  A    between atoms: _322  and  _323
REMARK  141  A    between atoms: _325  and  _327
REMARK  142  A    between atoms: _327  and  _328
REMARK  143  A    between atoms: _327  and  _330
REMARK  144  A    between atoms: _330  and  _331
REMARK  145  A    between atoms: _336  and  _338
REMARK  146  A    between atoms: _338  and  _339
REMARK  147  A    between atoms: _338  and  _341
REMARK  148  A    between atoms: _341  and  _342
REMARK  149  A    between atoms: _345  and  _347
REMARK  150  A    between atoms: _347  and  _348
REMARK  151  A    between atoms: _351  and  _353
REMARK  152  A    between atoms: _353  and  _354
REMARK  153  A    between atoms: _353  and  _356
REMARK  154  A    between atoms: _356  and  _357
REMARK  155  A    between atoms: _359  and  _361
REMARK  156  A    between atoms: _361  and  _362
REMARK  157  A    between atoms: _361  and  _364
REMARK  158  A    between atoms: _364  and  _365
REMARK  159  A    between atoms: _367  and  _369
REMARK  160  A    between atoms: _369  and  _370
REMARK  161  A    between atoms: _369  and  _372
REMARK  162  A    between atoms: _372  and  _373
REMARK  163  A    between atoms: _373  and  _374
REMARK  164  A    between atoms: _379  and  _381
REMARK  165  A    between atoms: _381  and  _382
REMARK  166  A    between atoms: _381  and  _384
REMARK  167  A    between atoms: _384  and  _385
REMARK  168  A    between atoms: _388  and  _390
REMARK  169  A    between atoms: _390  and  _391
REMARK  170  A    between atoms: _390  and  _393
REMARK  171  A    between atoms: _393  and  _394
REMARK  172  A    between atoms: _400  and  _402
REMARK  173  A    between atoms: _402  and  _403
REMARK  174  A    between atoms: _402  and  _405
REMARK  175  A    between atoms: _405  and  _406
REMARK  176  A    between atoms: _409  and  _411
REMARK  177  A    between atoms: _411  and  _412
REMARK  178  A    between atoms: _411  and  _414
REMARK  179  A    between atoms: _414  and  _415
REMARK  180  A    between atoms: _418  and  _420
REMARK  181  A    between atoms: _420  and  _421
REMARK  182  A    between atoms: _420  and  _423
REMARK  183  A    between atoms: _423  and  _424
REMARK  184  A    between atoms: _424  and  _425
REMARK  185  A    between atoms: _428  and  _430
REMARK  186  A    between atoms: _430  and  _431
REMARK  187  A    between atoms: _430  and  _433
REMARK  188  A    between atoms: _433  and  _434
REMARK  189  A    between atoms: _439  and  _440
REMARK  190  A    between atoms: _442  and  _444
REMARK  191  A    between atoms: _444  and  _445
REMARK  192  A    between atoms: _444  and  _447
REMARK  193  A    between atoms: _447  and  _448
REMARK  194  A    between atoms: _451  and  _453
REMARK  195  A    between atoms: _453  and  _454
REMARK  196  A    between atoms: _453  and  _456
REMARK  197  A    between atoms: _456  and  _457
REMARK  198  A    between atoms: _457  and  _458
REMARK  199  A    between atoms: _463  and  _465
REMARK  200  A    between atoms: _465  and  _466
REMARK  201  A    between atoms: _465  and  _468
REMARK  202  A    between atoms: _468  and  _469
REMARK  203  A    between atoms: _474  and  _475
REMARK  204  A    between atoms: _477  and  _479
REMARK  205  A    between atoms: _479  and  _480
REMARK  206  A    between atoms: _479  and  _482
REMARK  207  A    between atoms: _482  and  _483
REMARK  208  A    between atoms: _486  and  _488
REMARK  209  A    between atoms: _488  and  _489
REMARK  210  A    between atoms: _488  and  _491
REMARK  211  A    between atoms: _491  and  _492
REMARK  212  A    between atoms: _497  and  _498
REMARK  213  A    between atoms: _500  and  _502
REMARK  214  A    between atoms: _502  and  _503
REMARK  215  A    between atoms: _502  and  _505
REMARK  216  A    between atoms: _505  and  _506
REMARK  217  A    between atoms: _511  and  _512
REMARK  218  A    between atoms: _515  and  _516
REMARK  219  A    between atoms: _521  and  _523
REMARK  220  A    between atoms: _523  and  _524
REMARK  221  A    between atoms: _523  and  _526
REMARK  222  A    between atoms: _526  and  _527
REMARK  223  A    between atoms: _530  and  _532
REMARK  224  A    between atoms: _532  and  _533
REMARK  225  A    between atoms: _532  and  _535
REMARK  226  A    between atoms: _535  and  _536
REMARK                            x       y       z     vdW  Elec       q    Type
REMARK                         _______ _______ _______ _____ _____    ______ ____
ROOT
ATOM      1  CA  ALA A   5      21.601  31.378  30.198  0.00  0.00    +0.149 C 
ATOM      2  CB  ALA A   5      21.159  32.848  30.147  0.00  0.00    +0.031 C 
ENDROOT
BRANCH   1   3
ATOM      3  C   ALA A   5      20.667  30.481  29.377  0.00  0.00    +0.241 C 
ATOM      4  O   ALA A   5      19.672  29.952  29.893  0.00  0.00    -0.273 OA
ATOM      5  N   SER A   6      20.998  30.257  28.102  0.00  0.00    -0.295 N 
ATOM      6  H   SER A   6      21.853  30.687  27.696  0.00  0.00    +0.150 HD
BRANCH   5   7
ATOM      7  CA  SER A   6      20.152  29.410  27.296  0.00  0.00    +0.178 C 
BRANCH   7   8
ATOM      8  C   SER A   6      21.030  28.335  26.639  0.00  0.00    +0.243 C 
ATOM      9  O   SER A   6      22.239  28.511  26.547  0.00  0.00    -0.273 OA
ATOM     10  N   VAL A   7      20.422  27.236  26.216  0.00  0.00    -0.297 N 
ATOM     11  H   VAL A   7      19.439  27.056  26.502  0.00  0.00    +0.150 HD
BRANCH  10  12
ATOM     12  CA  VAL A   7      21.106  26.270  25.354  0.00  0.00    +0.149 C 
BRANCH  12  13
ATOM     13  C   VAL A   7      20.358  26.158  24.054  0.00  0.00    +0.241 C 
ATOM     14  O   VAL A   7      19.117  26.304  24.034  0.00  0.00    -0.273 OA
ATOM     15  N   GLN A   8      21.114  25.905  22.987  0.00  0.00    -0.298 N 
ATOM     16  H   GLN A   8      22.138  25.777  23.114  0.00  0.00    +0.150 HD
BRANCH  15  17
ATOM     17  CA  GLN A   8      20.548  25.802  21.641  0.00  0.00    +0.137 C 
BRANCH  17  18
ATOM     18  C   GLN A   8      20.861  24.437  21.047  0.00  0.00    +0.227 C 
ATOM     19  O   GLN A   8      21.926  23.865  21.281  0.00  0.00    -0.286 OA
ENDBRANCH  17  18
BRANCH  17  20
ATOM     20  CB  GLN A   8      21.103  26.867  20.684  0.00  0.00    +0.037 C 
BRANCH  20  21
ATOM     21  CG  GLN A   8      20.490  28.268  20.857  0.00  0.00    +0.087 C 
BRANCH  21  22
ATOM     22  CD  GLN A   8      21.091  29.012  22.031  0.00  0.00    +0.219 C 
ATOM     23  NE2 GLN A   8      20.312  29.195  23.058  0.00  0.00    -0.329 N 
ATOM     24 HE21 GLN A   8      20.668  29.694  23.898  0.00  0.00    +0.145 HD
ATOM     25 HE22 GLN A   8      19.334  28.842  23.038  0.00  0.00    +0.145 HD
ATOM     26  OE1 GLN A   8      22.257  29.410  22.003  0.00  0.00    -0.275 OA
ENDBRANCH  21  22
ENDBRANCH  20  21
ENDBRANCH  17  20
ENDBRANCH  15  17
ENDBRANCH  12  13
BRANCH  12  27
ATOM     27  CB  VAL A   7      21.311  24.871  25.988  0.00  0.00    +0.027 C 
ATOM     28  CG2 VAL A   7      22.138  25.016  27.276  0.00  0.00    +0.002 C 
ATOM     29  CG1 VAL A   7      19.986  24.076  26.233  0.00  0.00    +0.002 C 
ENDBRANCH  12  27
ENDBRANCH  10  12
ENDBRANCH   7   8
BRANCH   7  30
ATOM     30  CB  SER A   6      19.436  30.234  26.207  0.00  0.00    +0.166 C 
BRANCH  30  31
ATOM     31  OG  SER A   6      20.382  30.703  25.252  0.00  0.00    -0.380 OA
ATOM     32  H   SER A   6      21.052  31.273  25.706  0.00  0.00    +0.211 HD
ENDBRANCH  30  31
ENDBRANCH   7  30
ENDBRANCH   5   7
ENDBRANCH   1   3
BRANCH   1  35
ATOM     33  C   GLY A   4      23.897  30.726  30.695  0.00  0.00    +0.243 C 
ATOM     34  O   GLY A   4      23.547  30.271  31.781  0.00  0.00    -0.273 OA
ATOM     35  N   ALA A   5      23.023  31.246  29.837  0.00  0.00    -0.297 N 
ATOM     36  H   ALA A   5      23.347  31.563  28.901  0.00  0.00    +0.150 HD
BRANCH  33  37
ATOM     37  CA  GLY A   4      25.366  30.695  30.269  0.00  0.00    +0.176 C 
BRANCH  37  40
ATOM     38  C   GLY A   3      25.363  29.202  28.331  0.00  0.00    +0.243 C 
ATOM     39  O   GLY A   3      25.026  28.245  29.010  0.00  0.00    -0.273 OA
ATOM     40  N   GLY A   4      25.560  30.424  28.848  0.00  0.00    -0.295 N 
ATOM     41  H   GLY A   4      25.858  31.198  28.221  0.00  0.00    +0.150 HD
BRANCH  38  42
ATOM     42  CA  GLY A   3      25.549  29.022  26.829  0.00  0.00    +0.176 C 
BRANCH  42  45
ATOM     43  C   MET A   2      26.187  26.711  26.329  0.00  0.00    +0.241 C 
ATOM     44  O   MET A   2      27.345  26.946  26.660  0.00  0.00    -0.273 OA
ATOM     45  N   GLY A   3      25.221  27.627  26.419  0.00  0.00    -0.295 N 
ATOM     46  H   GLY A   3      24.237  27.367  26.203  0.00  0.00    +0.150 HD
BRANCH  43  47
ATOM     47  CA  MET A   2      25.850  25.325  25.736  0.00  0.00    +0.149 C 
BRANCH  47  49
ATOM     48  C   ASP A   1      25.114  25.569  23.414  0.00  0.00    +0.239 C 
ATOM     49  N   MET A   2      26.109  25.391  24.281  0.00  0.00    -0.297 N 
ATOM     50  H   MET A   2      27.083  25.297  23.930  0.00  0.00    +0.150 HD
ATOM     51  O   ASP A   1      23.947  25.623  23.766  0.00  0.00    -0.274 OA
BRANCH  48  52
ATOM     52  CA  ASP A   1      25.462  25.668  21.935  0.00  0.00    +0.156 C 
BRANCH  52  53
ATOM     53  N   ASP A   1      24.756  24.572  21.254  0.00  0.00    -0.238 NA
ATOM     54  H   ASP A   1      23.728  24.642  21.114  0.00  0.00    +0.142 HD
ENDBRANCH  52  53
BRANCH  52  55
ATOM     55  CB  ASP A   1      25.027  27.025  21.364  0.00  0.00    +0.140 C 
BRANCH  55  56
ATOM     56  CG  ASP A   1      25.676  28.209  22.075  0.00  0.00    +0.367 C 
ATOM     57  OD2 ASP A   1      26.639  28.035  22.853  0.00  0.00    -0.246 OA
ATOM     58  OD1 ASP A   1      25.235  29.337  21.836  0.00  0.00    -0.246 OA
ENDBRANCH  55  56
ENDBRANCH  52  55
ENDBRANCH  48  52
ENDBRANCH  47  49
BRANCH  47  59
ATOM     59  CB  MET A   2      26.754  24.256  26.372  0.00  0.00    +0.041 C 
BRANCH  59  60
ATOM     60  CG  MET A   2      26.899  22.980  25.539  0.00  0.00    +0.060 C 
BRANCH  60  61
ATOM     61  SD  MET A   2      25.271  22.246  25.530  0.00  0.00    -0.139 S 
ATOM     62  CE  MET A   2      25.596  20.550  24.986  0.00  0.00    +0.069 C 
ENDBRANCH  60  61
ENDBRANCH  59  60
ENDBRANCH  47  59
ENDBRANCH  43  47
ENDBRANCH  42  45
ENDBRANCH  38  42
ENDBRANCH  37  40
ENDBRANCH  33  37
ENDBRANCH   1  35
TORSDOF 27
REMARK  Name = ../refined-set-2016/3aaq/3aaq_pocket.pdb
REMARK  226 active torsions:
REMARK  status: ('A' for Active; 'I' for Inactive)
REMARK    1  A    between atoms: _1  and  _3
REMARK    2  A    between atoms: _3  and  _4
REMARK    3  A    between atoms: _3  and  _6
REMARK    4  A    between atoms: _6  and  _7
REMARK    5  A    between atoms: _10  and  _12
REMARK    6  A    between atoms: _12  and  _13
REMARK    7  A    between atoms: _16  and  _18
REMARK    8  A    between atoms: _18  and  _19
REMARK    9  A    between atoms: _21  and  _23
REMARK   10  A    between atoms: _23  and  _24
REMARK   11  A    between atoms: _23  and  _26
REMARK   12  A    between atoms: _26  and  _27
REMARK   13  A    between atoms: _29  and  _31
REMARK   14  A    between atoms: _31  and  _32
REMARK   15  A    between atoms: _31  and  _34
REMARK   16  A    between atoms: _34  and  _35
REMARK   17  A    between atoms: _38  and  _40
REMARK   18  A    between atoms: _40  and  _41
REMARK   19  A    between atoms: _43  and  _45
REMARK   20  A    between atoms: _45  and  _46
REMARK   21  A    between atoms: _45  and  _48
REMARK   22  A    between atoms: _48  and  _49
REMARK   23  A    between atoms: _51  and  _53
REMARK   24  A    between atoms: _53  and  _54
REMARK   25  A    between atoms: _53  and  _56
REMARK   26  A    between atoms: _56  and  _57
REMARK   27  A    between atoms: _57  and  _58
REMARK   28  A    between atoms: _58  and  _59
REMARK   29  A    between atoms: _68  and  _70
REMARK   30  A    between atoms: _70  and  _71
REMARK   31  A    between atoms: _70  and  _73
REMARK   32  A    between atoms: _73  and  _74
REMARK   33  A    between atoms: _74  and  _75
REMARK   34  A    between atoms: _75  and  _76
REMARK   35  A    between atoms: _76  and  _77
REMARK   36  A    between atoms: _81  and  _83
REMARK   37  A    between atoms: _83  and  _84
REMARK   38  A    between atoms: _83  and  _86
REMARK   39  A    between atoms: _86  and  _87
REMARK   40  A    between atoms: _90  and  _92
REMARK   41  A    between atoms: _92  and  _93
REMARK   42  A    between atoms: _92  and  _95
REMARK   43  A    between atoms: _95  and  _96
REMARK   44  A    between atoms: _96  and  _97
REMARK   45  A    between atoms: _97  and  _98
REMARK   46  A    between atoms: _98  and  _99
REMARK   47  A    between atoms: _104  and  _105
REMARK   48  A    between atoms: _110  and  _112
REMARK   49  A    between atoms: _112  and  _113
REMARK   50  A    between atoms: _115  and  _117
REMARK   51  A    between atoms: _117  and  _118
REMARK   52  A    between atoms: _117  and  _120
REMARK   53  A    between atoms: _120  and  _121
REMARK   54  A    between atoms: _127  and  _129
REMARK   55  A    between atoms: _129  and  _130
REMARK   56  A    between atoms: _129  and  _132
REMARK   57  A    between atoms: _132  and  _133
REMARK   58  A    between atoms: _136  and  _138
REMARK   59  A    between atoms: _138  and  _139
REMARK   60  A    between atoms: _142  and  _144
REMARK   61  A    between atoms: _144  and  _145
REMARK   62  A    between atoms: _147  and  _149
REMARK   63  A    between atoms: _149  and  _150
REMARK   64  A    between atoms: _149  and  _152
REMARK   65  A    between atoms: _152  and  _153
REMARK   66  A    between atoms: _153  and  _154
REMARK   67  A    between atoms: _156  and  _158
REMARK   68  A    between atoms: _158  and  _159
REMARK   69  A    between atoms: _158  and  _161
REMARK   70  A    between atoms: _161  and  _162
REMARK   71  A    between atoms: _162  and  _163
REMARK   72  A    between atoms: _163  and  _164
REMARK   73  A    between atoms: _173  and  _175
REMARK   74  A    between atoms: _175  and  _176
REMARK   75  A    between atoms: _175  and  _178
REMARK   76  A    between atoms: _178  and  _179
REMARK   77  A    between atoms: _179  and  _180
REMARK   78  A    between atoms: _183  and  _185
REMARK   79  A    between atoms: _185  and  _186
REMARK   80  A    between atoms: _185  and  _188
REMARK   81  A    between atoms: _188  and  _189
REMARK   82  A    between atoms: _192  and  _194
REMARK   83  A    between atoms: _194  and  _195
REMARK   84  A    between atoms: _194  and  _197
REMARK   85  A    between atoms: _197  and  _198
REMARK   86  A    between atoms: _198  and  _199
REMARK   87  A    between atoms: _201  and  _203
REMARK   88  A    between atoms: _203  and  _204
REMARK   89  A    between atoms: _206  and  _208
REMARK   90  A    between atoms: _208  and  _209
REMARK   91  A    between atoms: _211  and  _213
REMARK   92  A    between atoms: _213  and  _214
REMARK   93  A    between atoms: _217  and  _219
REMARK   94  A    between atoms: _219  and  _220
REMARK   95  A    between atoms: _219  and  _222
REMARK   96  A    between atoms: _222  and  _223
REMARK   97  A    between atoms: _225  and  _227
REMARK   98  A    between atoms: _227  and  _228
REMARK   99  A    between atoms: _227  and  _230
REMARK  100  A    between atoms: _233  and  _235
REMARK  101  A    between atoms: _235  and  _236
REMARK  102  A    between atoms: _235  and  _238
REMARK  103  A    between atoms: _238  and  _239
REMARK  104  A    between atoms: _239  and  _240
REMARK  105  A    between atoms: _245  and  _247
REMARK  106  A    between atoms: _247  and  _248
REMARK  107  A    between atoms: _250  and  _252
REMARK  108  A    between atoms: _252  and  _253
REMARK  109  A    between atoms: _252  and  _255
REMARK  110  A    between atoms: _255  and  _256
REMARK  111  A    between atoms: _256  and  _257
REMARK  112  A    between atoms: _262  and  _264
REMARK  113  A    between atoms: _264  and  _265
REMARK  114  A    between atoms: _264  and  _267
REMARK  115  A    between atoms: _267  and  _268
REMARK  116  A    between atoms: _271  and  _273
REMARK  117  A    between atoms: _273  and  _274
REMARK  118  A    between atoms: _273  and  _276
REMARK  119  A    between atoms: _276  and  _277
REMARK  120  A    between atoms: _277  and  _278
REMARK  121  A    between atoms: _281  and  _283
REMARK  122  A    between atoms: _283  and  _284
REMARK  123  A    between atoms: _283  and  _286
REMARK  124  A    between atoms: _286  and  _287
REMARK  125  A    between atoms: _289  and  _291
REMARK  126  A    between atoms: _291  and  _292
REMARK  127  A    between atoms: _291  and  _294
REMARK  128  A    between atoms: _294  and  _295
REMARK  129  A    between atoms: _298  and  _300
REMARK  130  A    between atoms: _300  and  _301
REMARK  131  A    between atoms: _303  and  _305
REMARK  132  A    between atoms: _305  and  _306
REMARK  133  A    between atoms: _308  and  _310
REMARK  134  A    between atoms: _310  and  _311
REMARK  135  A    between atoms: _310  and  _313
REMARK  136  A    between atoms: _313  and  _314
REMARK  137  A    between atoms: _317  and  _319
REMARK  138  A    between atoms: _319  and  _320
REMARK  139  A    between atoms: _319  and  _322
REMARK  140  A    between atoms: _322  and  _323
REMARK  141  A    between atoms: _325  and  _327
REMARK  142  A    between atoms: _327  and  _328
REMARK  143  A    between atoms: _327  and  _330
REMARK  144  A    between atoms: _330  and  _331
REMARK  145  A    between atoms: _336  and  _338
REMARK  146  A    between atoms: _338  and  _339
REMARK  147  A    between atoms: _338  and  _341
REMARK  148  A    between atoms: _341  and  _342
REMARK  149  A    between atoms: _345  and  _347
REMARK  150  A    between atoms: _347  and  _348
REMARK  151  A    between atoms: _351  and  _353
REMARK  152  A    between atoms: _353  and  _354
REMARK  153  A    between atoms: _353  and  _356
REMARK  154  A    between atoms: _356  and  _357
REMARK  155  A    between atoms: _359  and  _361
REMARK  156  A    between atoms: _361  and  _362
REMARK  157  A    between atoms: _361  and  _364
REMARK  158  A    between atoms: _364  and  _365
REMARK  159  A    between atoms: _367  and  _369
REMARK  160  A    between atoms: _369  and  _370
REMARK  161  A    between atoms: _369  and  _372
REMARK  162  A    between atoms: _372  and  _373
REMARK  163  A    between atoms: _373  and  _374
REMARK  164  A    between atoms: _379  and  _381
REMARK  165  A    between atoms: _381  and  _382
REMARK  166  A    between atoms: _381  and  _384
REMARK  167  A    between atoms: _384  and  _385
REMARK  168  A    between atoms: _388  and  _390
REMARK  169  A    between atoms: _390  and  _391
REMARK  170  A    between atoms: _390  and  _393
REMARK  171  A    between atoms: _393  and  _394
REMARK  172  A    between atoms: _400  and  _402
REMARK  173  A    between atoms: _402  and  _403
REMARK  174  A    between atoms: _402  and  _405
REMARK  175  A    between atoms: _405  and  _406
REMARK  176  A    between atoms: _409  and  _411
REMARK  177  A    between atoms: _411  and  _412
REMARK  178  A    between atoms: _411  and  _414
REMARK  179  A    between atoms: _414  and  _415
REMARK  180  A    between atoms: _418  and  _420
REMARK  181  A    between atoms: _420  and  _421
REMARK  182  A    between atoms: _420  and  _423
REMARK  183  A    between atoms: _423  and  _424
REMARK  184  A    between atoms: _424  and  _425
REMARK  185  A    between atoms: _428  and  _430
REMARK  186  A    between atoms: _430  and  _431
REMARK  187  A    between atoms: _430  and  _433
REMARK  188  A    between atoms: _433  and  _434
REMARK  189  A    between atoms: _439  and  _440
REMARK  190  A    between atoms: _442  and  _444
REMARK  191  A    between atoms: _444  and  _445
REMARK  192  A    between atoms: _444  and  _447
REMARK  193  A    between atoms: _447  and  _448
REMARK  194  A    between atoms: _451  and  _453
REMARK  195  A    between atoms: _453  and  _454
REMARK  196  A    between atoms: _453  and  _456
REMARK  197  A    between atoms: _456  and  _457
REMARK  198  A    between atoms: _457  and  _458
REMARK  199  A    between atoms: _463  and  _465
REMARK  200  A    between atoms: _465  and  _466
REMARK  201  A    between atoms: _465  and  _468
REMARK  202  A    between atoms: _468  and  _469
REMARK  203  A    between atoms: _474  and  _475
REMARK  204  A    between atoms: _477  and  _479
REMARK  205  A    between atoms: _479  and  _480
REMARK  206  A    between atoms: _479  and  _482
REMARK  207  A    between atoms: _482  and  _483
REMARK  208  A    between atoms: _486  and  _488
REMARK  209  A    between atoms: _488  and  _489
REMARK  210  A    between atoms: _488  and  _491
REMARK  211  A    between atoms: _491  and  _492
REMARK  212  A    between atoms: _497  and  _498
REMARK  213  A    between atoms: _500  and  _502
REMARK  214  A    between atoms: _502  and  _503
REMARK  215  A    between atoms: _502  and  _505
REMARK  216  A    between atoms: _505  and  _506
REMARK  217  A    between atoms: _511  and  _512
REMARK  218  A    between atoms: _515  and  _516
REMARK  219  A    between atoms: _521  and  _523
REMARK  220  A    between atoms: _523  and  _524
REMARK  221  A    between atoms: _523  and  _526
REMARK  222  A    between atoms: _526  and  _527
REMARK  223  A    between atoms: _530  and  _532
REMARK  224  A    between atoms: _532  and  _533
REMARK  225  A    between atoms: _532  and  _535
REMARK  226  A    between atoms: _535  and  _536
REMARK                            x       y       z     vdW  Elec       q    Type
REMARK                         _______ _______ _______ _____ _____    ______ ____
ROOT
ATOM      1  C   GLN A   2      24.669  27.424  33.971  0.00  0.00    +0.241 C 
ATOM      2  O   GLN A   2      24.465  26.937  35.080  0.00  0.00    -0.273 OA
ATOM      3  N   THR A   3      24.786  28.731  33.783  0.00  0.00    -0.295 N 
ATOM      4  H   THR A   3      24.955  29.103  32.827  0.00  0.00    +0.150 HD
ENDROOT
BRANCH   3   5
ATOM      5  CA  THR A   3      24.678  29.655  34.915  0.00  0.00    +0.176 C 
BRANCH   5   6
ATOM      6  C   THR A   3      23.260  29.642  35.535  0.00  0.00    +0.243 C 
ATOM      7  O   THR A   3      23.124  29.431  36.749  0.00  0.00    -0.273 OA
ATOM      8  N   GLU A   4      22.222  29.804  34.708  0.00  0.00    -0.298 N 
ATOM      9  H   GLU A   4      22.395  29.934  33.691  0.00  0.00    +0.150 HD
BRANCH   8  10
ATOM     10  CA  GLU A   4      20.833  29.801  35.214  0.00  0.00    +0.137 C 
BRANCH  10  11
ATOM     11  C   GLU A   4      20.464  28.482  35.843  0.00  0.00    +0.227 C 
ATOM     12  O   GLU A   4      19.904  28.444  36.960  0.00  0.00    -0.286 OA
ENDBRANCH  10  11
BRANCH  10  13
ATOM     13  CB  GLU A   4      19.811  30.160  34.120  0.00  0.00    +0.039 C 
BRANCH  13  14
ATOM     14  CG  GLU A   4      20.023  31.527  33.587  0.00  0.00    +0.116 C 
BRANCH  14  15
ATOM     15  CD  GLU A   4      19.829  32.585  34.658  0.00  0.00    +0.365 C 
ATOM     16  OE2 GLU A   4      18.805  32.515  35.354  0.00  0.00    -0.246 OA
ATOM     17  OE1 GLU A   4      20.687  33.481  34.800  0.00  0.00    -0.246 OA
ENDBRANCH  14  15
ENDBRANCH  13  14
ENDBRANCH  10  13
ENDBRANCH   8  10
ENDBRANCH   5   6
BRANCH   5  18
ATOM     18  CB  THR A   3      25.159  31.077  34.544  0.00  0.00    +0.137 C 
ATOM     19  CG2 THR A   3      25.095  32.024  35.751  0.00  0.00    +0.034 C 
BRANCH  18  20
ATOM     20  OG1 THR A   3      26.510  30.985  34.096  0.00  0.00    -0.382 OA
ATOM     21  HG1 THR A   3      26.838  31.887  33.853  0.00  0.00    +0.210 HD
ENDBRANCH  18  20
ENDBRANCH   5  18
ENDBRANCH   3   5
BRANCH   1  22
ATOM     22  CA  GLN A   2      24.758  26.531  32.726  0.00  0.00    +0.149 C 
BRANCH  22  25
ATOM     23  C   GLY A   1      22.764  27.267  31.599  0.00  0.00    +0.240 C 
ATOM     24  O   GLY A   1      22.120  27.146  32.647  0.00  0.00    -0.274 OA
ATOM     25  N   GLN A   2      24.086  27.115  31.563  0.00  0.00    -0.297 N 
ATOM     26  H   GLN A   2      24.631  27.405  30.726  0.00  0.00    +0.150 HD
BRANCH  23  27
ATOM     27  CA  GLY A   1      22.060  27.592  30.283  0.00  0.00    +0.169 C 
BRANCH  27  28
ATOM     28  N   GLY A   1      20.639  27.220  30.348  0.00  0.00    -0.236 NA
ATOM     29  H   GLY A   1      19.915  27.955  30.217  0.00  0.00    +0.142 HD
ENDBRANCH  27  28
ENDBRANCH  23  27
ENDBRANCH  22  25
BRANCH  22  30
ATOM     30  CB  GLN A   2      26.200  26.109  32.413  0.00  0.00    +0.039 C 
BRANCH  30  31
ATOM     31  CG  GLN A   2      27.200  27.250  32.282  0.00  0.00    +0.087 C 
BRANCH  31  32
ATOM     32  CD  GLN A   2      28.655  26.800  32.551  0.00  0.00    +0.219 C 
ATOM     33  OE1 GLN A   2      29.294  27.203  33.566  0.00  0.00    -0.275 OA
ATOM     34  NE2 GLN A   2      29.180  25.973  31.655  0.00  0.00    -0.329 N 
ATOM     35 HE21 GLN A   2      30.155  25.630  31.772  0.00  0.00    +0.145 HD
ATOM     36 HE22 GLN A   2      28.617  25.668  30.836  0.00  0.00    +0.145 HD
ENDBRANCH  31  32
ENDBRANCH  30  31
ENDBRANCH  22  30
ENDBRANCH   1  22
TORSDOF 16
REMARK  Name = ../refined-set-2016/3aaq/3aaq_pocket.pdb
REMARK  226 active torsions:
REMARK  status: ('A' for Active; 'I' for Inactive)
REMARK    1  A    between atoms: _1  and  _3
REMARK    2  A    between atoms: _3  and  _4
REMARK    3  A    between atoms: _3  and  _6
REMARK    4  A    between atoms: _6  and  _7
REMARK    5  A    between atoms: _10  and  _12
REMARK    6  A    between atoms: _12  and  _13
REMARK    7  A    between atoms: _16  and  _18
REMARK    8  A    between atoms: _18  and  _19
REMARK    9  A    between atoms: _21  and  _23
REMARK   10  A    between atoms: _23  and  _24
REMARK   11  A    between atoms: _23  and  _26
REMARK   12  A    between atoms: _26  and  _27
REMARK   13  A    between atoms: _29  and  _31
REMARK   14  A    between atoms: _31  and  _32
REMARK   15  A    between atoms: _31  and  _34
REMARK   16  A    between atoms: _34  and  _35
REMARK   17  A    between atoms: _38  and  _40
REMARK   18  A    between atoms: _40  and  _41
REMARK   19  A    between atoms: _43  and  _45
REMARK   20  A    between atoms: _45  and  _46
REMARK   21  A    between atoms: _45  and  _48
REMARK   22  A    between atoms: _48  and  _49
REMARK   23  A    between atoms: _51  and  _53
REMARK   24  A    between atoms: _53  and  _54
REMARK   25  A    between atoms: _53  and  _56
REMARK   26  A    between atoms: _56  and  _57
REMARK   27  A    between atoms: _57  and  _58
REMARK   28  A    between atoms: _58  and  _59
REMARK   29  A    between atoms: _68  and  _70
REMARK   30  A    between atoms: _70  and  _71
REMARK   31  A    between atoms: _70  and  _73
REMARK   32  A    between atoms: _73  and  _74
REMARK   33  A    between atoms: _74  and  _75
REMARK   34  A    between atoms: _75  and  _76
REMARK   35  A    between atoms: _76  and  _77
REMARK   36  A    between atoms: _81  and  _83
REMARK   37  A    between atoms: _83  and  _84
REMARK   38  A    between atoms: _83  and  _86
REMARK   39  A    between atoms: _86  and  _87
REMARK   40  A    between atoms: _90  and  _92
REMARK   41  A    between atoms: _92  and  _93
REMARK   42  A    between atoms: _92  and  _95
REMARK   43  A    between atoms: _95  and  _96
REMARK   44  A    between atoms: _96  and  _97
REMARK   45  A    between atoms: _97  and  _98
REMARK   46  A    between atoms: _98  and  _99
REMARK   47  A    between atoms: _104  and  _105
REMARK   48  A    between atoms: _110  and  _112
REMARK   49  A    between atoms: _112  and  _113
REMARK   50  A    between atoms: _115  and  _117
REMARK   51  A    between atoms: _117  and  _118
REMARK   52  A    between atoms: _117  and  _120
REMARK   53  A    between atoms: _120  and  _121
REMARK   54  A    between atoms: _127  and  _129
REMARK   55  A    between atoms: _129  and  _130
REMARK   56  A    between atoms: _129  and  _132
REMARK   57  A    between atoms: _132  and  _133
REMARK   58  A    between atoms: _136  and  _138
REMARK   59  A    between atoms: _138  and  _139
REMARK   60  A    between atoms: _142  and  _144
REMARK   61  A    between atoms: _144  and  _145
REMARK   62  A    between atoms: _147  and  _149
REMARK   63  A    between atoms: _149  and  _150
REMARK   64  A    between atoms: _149  and  _152
REMARK   65  A    between atoms: _152  and  _153
REMARK   66  A    between atoms: _153  and  _154
REMARK   67  A    between atoms: _156  and  _158
REMARK   68  A    between atoms: _158  and  _159
REMARK   69  A    between atoms: _158  and  _161
REMARK   70  A    between atoms: _161  and  _162
REMARK   71  A    between atoms: _162  and  _163
REMARK   72  A    between atoms: _163  and  _164
REMARK   73  A    between atoms: _173  and  _175
REMARK   74  A    between atoms: _175  and  _176
REMARK   75  A    between atoms: _175  and  _178
REMARK   76  A    between atoms: _178  and  _179
REMARK   77  A    between atoms: _179  and  _180
REMARK   78  A    between atoms: _183  and  _185
REMARK   79  A    between atoms: _185  and  _186
REMARK   80  A    between atoms: _185  and  _188
REMARK   81  A    between atoms: _188  and  _189
REMARK   82  A    between atoms: _192  and  _194
REMARK   83  A    between atoms: _194  and  _195
REMARK   84  A    between atoms: _194  and  _197
REMARK   85  A    between atoms: _197  and  _198
REMARK   86  A    between atoms: _198  and  _199
REMARK   87  A    between atoms: _201  and  _203
REMARK   88  A    between atoms: _203  and  _204
REMARK   89  A    between atoms: _206  and  _208
REMARK   90  A    between atoms: _208  and  _209
REMARK   91  A    between atoms: _211  and  _213
REMARK   92  A    between atoms: _213  and  _214
REMARK   93  A    between atoms: _217  and  _219
REMARK   94  A    between atoms: _219  and  _220
REMARK   95  A    between atoms: _219  and  _222
REMARK   96  A    between atoms: _222  and  _223
REMARK   97  A    between atoms: _225  and  _227
REMARK   98  A    between atoms: _227  and  _228
REMARK   99  A    between atoms: _227  and  _230
REMARK  100  A    between atoms: _233  and  _235
REMARK  101  A    between atoms: _235  and  _236
REMARK  102  A    between atoms: _235  and  _238
REMARK  103  A    between atoms: _238  and  _239
REMARK  104  A    between atoms: _239  and  _240
REMARK  105  A    between atoms: _245  and  _247
REMARK  106  A    between atoms: _247  and  _248
REMARK  107  A    between atoms: _250  and  _252
REMARK  108  A    between atoms: _252  and  _253
REMARK  109  A    between atoms: _252  and  _255
REMARK  110  A    between atoms: _255  and  _256
REMARK  111  A    between atoms: _256  and  _257
REMARK  112  A    between atoms: _262  and  _264
REMARK  113  A    between atoms: _264  and  _265
REMARK  114  A    between atoms: _264  and  _267
REMARK  115  A    between atoms: _267  and  _268
REMARK  116  A    between atoms: _271  and  _273
REMARK  117  A    between atoms: _273  and  _274
REMARK  118  A    between atoms: _273  and  _276
REMARK  119  A    between atoms: _276  and  _277
REMARK  120  A    between atoms: _277  and  _278
REMARK  121  A    between atoms: _281  and  _283
REMARK  122  A    between atoms: _283  and  _284
REMARK  123  A    between atoms: _283  and  _286
REMARK  124  A    between atoms: _286  and  _287
REMARK  125  A    between atoms: _289  and  _291
REMARK  126  A    between atoms: _291  and  _292
REMARK  127  A    between atoms: _291  and  _294
REMARK  128  A    between atoms: _294  and  _295
REMARK  129  A    between atoms: _298  and  _300
REMARK  130  A    between atoms: _300  and  _301
REMARK  131  A    between atoms: _303  and  _305
REMARK  132  A    between atoms: _305  and  _306
REMARK  133  A    between atoms: _308  and  _310
REMARK  134  A    between atoms: _310  and  _311
REMARK  135  A    between atoms: _310  and  _313
REMARK  136  A    between atoms: _313  and  _314
REMARK  137  A    between atoms: _317  and  _319
REMARK  138  A    between atoms: _319  and  _320
REMARK  139  A    between atoms: _319  and  _322
REMARK  140  A    between atoms: _322  and  _323
REMARK  141  A    between atoms: _325  and  _327
REMARK  142  A    between atoms: _327  and  _328
REMARK  143  A    between atoms: _327  and  _330
REMARK  144  A    between atoms: _330  and  _331
REMARK  145  A    between atoms: _336  and  _338
REMARK  146  A    between atoms: _338  and  _339
REMARK  147  A    between atoms: _338  and  _341
REMARK  148  A    between atoms: _341  and  _342
REMARK  149  A    between atoms: _345  and  _347
REMARK  150  A    between atoms: _347  and  _348
REMARK  151  A    between atoms: _351  and  _353
REMARK  152  A    between atoms: _353  and  _354
REMARK  153  A    between atoms: _353  and  _356
REMARK  154  A    between atoms: _356  and  _357
REMARK  155  A    between atoms: _359  and  _361
REMARK  156  A    between atoms: _361  and  _362
REMARK  157  A    between atoms: _361  and  _364
REMARK  158  A    between atoms: _364  and  _365
REMARK  159  A    between atoms: _367  and  _369
REMARK  160  A    between atoms: _369  and  _370
REMARK  161  A    between atoms: _369  and  _372
REMARK  162  A    between atoms: _372  and  _373
REMARK  163  A    between atoms: _373  and  _374
REMARK  164  A    between atoms: _379  and  _381
REMARK  165  A    between atoms: _381  and  _382
REMARK  166  A    between atoms: _381  and  _384
REMARK  167  A    between atoms: _384  and  _385
REMARK  168  A    between atoms: _388  and  _390
REMARK  169  A    between atoms: _390  and  _391
REMARK  170  A    between atoms: _390  and  _393
REMARK  171  A    between atoms: _393  and  _394
REMARK  172  A    between atoms: _400  and  _402
REMARK  173  A    between atoms: _402  and  _403
REMARK  174  A    between atoms: _402  and  _405
REMARK  175  A    between atoms: _405  and  _406
REMARK  176  A    between atoms: _409  and  _411
REMARK  177  A    between atoms: _411  and  _412
REMARK  178  A    between atoms: _411  and  _414
REMARK  179  A    between atoms: _414  and  _415
REMARK  180  A    between atoms: _418  and  _420
REMARK  181  A    between atoms: _420  and  _421
REMARK  182  A    between atoms: _420  and  _423
REMARK  183  A    between atoms: _423  and  _424
REMARK  184  A    between atoms: _424  and  _425
REMARK  185  A    between atoms: _428  and  _430
REMARK  186  A    between atoms: _430  and  _431
REMARK  187  A    between atoms: _430  and  _433
REMARK  188  A    between atoms: _433  and  _434
REMARK  189  A    between atoms: _439  and  _440
REMARK  190  A    between atoms: _442  and  _444
REMARK  191  A    between atoms: _444  and  _445
REMARK  192  A    between atoms: _444  and  _447
REMARK  193  A    between atoms: _447  and  _448
REMARK  194  A    between atoms: _451  and  _453
REMARK  195  A    between atoms: _453  and  _454
REMARK  196  A    between atoms: _453  and  _456
REMARK  197  A    between atoms: _456  and  _457
REMARK  198  A    between atoms: _457  and  _458
REMARK  199  A    between atoms: _463  and  _465
REMARK  200  A    between atoms: _465  and  _466
REMARK  201  A    between atoms: _465  and  _468
REMARK  202  A    between atoms: _468  and  _469
REMARK  203  A    between atoms: _474  and  _475
REMARK  204  A    between atoms: _477  and  _479
REMARK  205  A    between atoms: _479  and  _480
REMARK  206  A    between atoms: _479  and  _482
REMARK  207  A    between atoms: _482  and  _483
REMARK  208  A    between atoms: _486  and  _488
REMARK  209  A    between atoms: _488  and  _489
REMARK  210  A    between atoms: _488  and  _491
REMARK  211  A    between atoms: _491  and  _492
REMARK  212  A    between atoms: _497  and  _498
REMARK  213  A    between atoms: _500  and  _502
REMARK  214  A    between atoms: _502  and  _503
REMARK  215  A    between atoms: _502  and  _505
REMARK  216  A    between atoms: _505  and  _506
REMARK  217  A    between atoms: _511  and  _512
REMARK  218  A    between atoms: _515  and  _516
REMARK  219  A    between atoms: _521  and  _523
REMARK  220  A    between atoms: _523  and  _524
REMARK  221  A    between atoms: _523  and  _526
REMARK  222  A    between atoms: _526  and  _527
REMARK  223  A    between atoms: _530  and  _532
REMARK  224  A    between atoms: _532  and  _533
REMARK  225  A    between atoms: _532  and  _535
REMARK  226  A    between atoms: _535  and  _536
REMARK                            x       y       z     vdW  Elec       q    Type
REMARK                         _______ _______ _______ _____ _____    ______ ____
ROOT
ATOM      1  CA  SER A   1      23.257  26.036  38.359  0.00  0.00    +0.163 C 
ENDROOT
BRANCH   1   2
ATOM      2  N   SER A   1      22.454  26.360  37.157  0.00  0.00    -0.237 NA
ATOM      3  H   SER A   1      22.846  26.981  36.421  0.00  0.00    +0.142 HD
ENDBRANCH   1   2
BRANCH   1   4
ATOM      4  C   SER A   1      22.597  26.546  39.637  0.00  0.00    +0.227 C 
ATOM      5  O   SER A   1      22.748  25.941  40.705  0.00  0.00    -0.287 OA
ENDBRANCH   1   4
BRANCH   1   6
ATOM      6  CB  SER A   1      24.705  26.550  38.262  0.00  0.00    +0.162 C 
BRANCH   6   7
ATOM      7  OG  SER A   1      24.740  27.969  38.351  0.00  0.00    -0.380 OA
ATOM      8  H   SER A   1      25.678  28.279  38.287  0.00  0.00    +0.211 HD
ENDBRANCH   6   7
ENDBRANCH   1   6
TORSDOF 4
REMARK  Name = ../refined-set-2016/3aaq/3aaq_pocket.pdb
REMARK  226 active torsions:
REMARK  status: ('A' for Active; 'I' for Inactive)
REMARK    1  A    between atoms: _1  and  _3
REMARK    2  A    between atoms: _3  and  _4
REMARK    3  A    between atoms: _3  and  _6
REMARK    4  A    between atoms: _6  and  _7
REMARK    5  A    between atoms: _10  and  _12
REMARK    6  A    between atoms: _12  and  _13
REMARK    7  A    between atoms: _16  and  _18
REMARK    8  A    between atoms: _18  and  _19
REMARK    9  A    between atoms: _21  and  _23
REMARK   10  A    between atoms: _23  and  _24
REMARK   11  A    between atoms: _23  and  _26
REMARK   12  A    between atoms: _26  and  _27
REMARK   13  A    between atoms: _29  and  _31
REMARK   14  A    between atoms: _31  and  _32
REMARK   15  A    between atoms: _31  and  _34
REMARK   16  A    between atoms: _34  and  _35
REMARK   17  A    between atoms: _38  and  _40
REMARK   18  A    between atoms: _40  and  _41
REMARK   19  A    between atoms: _43  and  _45
REMARK   20  A    between atoms: _45  and  _46
REMARK   21  A    between atoms: _45  and  _48
REMARK   22  A    between atoms: _48  and  _49
REMARK   23  A    between atoms: _51  and  _53
REMARK   24  A    between atoms: _53  and  _54
REMARK   25  A    between atoms: _53  and  _56
REMARK   26  A    between atoms: _56  and  _57
REMARK   27  A    between atoms: _57  and  _58
REMARK   28  A    between atoms: _58  and  _59
REMARK   29  A    between atoms: _68  and  _70
REMARK   30  A    between atoms: _70  and  _71
REMARK   31  A    between atoms: _70  and  _73
REMARK   32  A    between atoms: _73  and  _74
REMARK   33  A    between atoms: _74  and  _75
REMARK   34  A    between atoms: _75  and  _76
REMARK   35  A    between atoms: _76  and  _77
REMARK   36  A    between atoms: _81  and  _83
REMARK   37  A    between atoms: _83  and  _84
REMARK   38  A    between atoms: _83  and  _86
REMARK   39  A    between atoms: _86  and  _87
REMARK   40  A    between atoms: _90  and  _92
REMARK   41  A    between atoms: _92  and  _93
REMARK   42  A    between atoms: _92  and  _95
REMARK   43  A    between atoms: _95  and  _96
REMARK   44  A    between atoms: _96  and  _97
REMARK   45  A    between atoms: _97  and  _98
REMARK   46  A    between atoms: _98  and  _99
REMARK   47  A    between atoms: _104  and  _105
REMARK   48  A    between atoms: _110  and  _112
REMARK   49  A    between atoms: _112  and  _113
REMARK   50  A    between atoms: _115  and  _117
REMARK   51  A    between atoms: _117  and  _118
REMARK   52  A    between atoms: _117  and  _120
REMARK   53  A    between atoms: _120  and  _121
REMARK   54  A    between atoms: _127  and  _129
REMARK   55  A    between atoms: _129  and  _130
REMARK   56  A    between atoms: _129  and  _132
REMARK   57  A    between atoms: _132  and  _133
REMARK   58  A    between atoms: _136  and  _138
REMARK   59  A    between atoms: _138  and  _139
REMARK   60  A    between atoms: _142  and  _144
REMARK   61  A    between atoms: _144  and  _145
REMARK   62  A    between atoms: _147  and  _149
REMARK   63  A    between atoms: _149  and  _150
REMARK   64  A    between atoms: _149  and  _152
REMARK   65  A    between atoms: _152  and  _153
REMARK   66  A    between atoms: _153  and  _154
REMARK   67  A    between atoms: _156  and  _158
REMARK   68  A    between atoms: _158  and  _159
REMARK   69  A    between atoms: _158  and  _161
REMARK   70  A    between atoms: _161  and  _162
REMARK   71  A    between atoms: _162  and  _163
REMARK   72  A    between atoms: _163  and  _164
REMARK   73  A    between atoms: _173  and  _175
REMARK   74  A    between atoms: _175  and  _176
REMARK   75  A    between atoms: _175  and  _178
REMARK   76  A    between atoms: _178  and  _179
REMARK   77  A    between atoms: _179  and  _180
REMARK   78  A    between atoms: _183  and  _185
REMARK   79  A    between atoms: _185  and  _186
REMARK   80  A    between atoms: _185  and  _188
REMARK   81  A    between atoms: _188  and  _189
REMARK   82  A    between atoms: _192  and  _194
REMARK   83  A    between atoms: _194  and  _195
REMARK   84  A    between atoms: _194  and  _197
REMARK   85  A    between atoms: _197  and  _198
REMARK   86  A    between atoms: _198  and  _199
REMARK   87  A    between atoms: _201  and  _203
REMARK   88  A    between atoms: _203  and  _204
REMARK   89  A    between atoms: _206  and  _208
REMARK   90  A    between atoms: _208  and  _209
REMARK   91  A    between atoms: _211  and  _213
REMARK   92  A    between atoms: _213  and  _214
REMARK   93  A    between atoms: _217  and  _219
REMARK   94  A    between atoms: _219  and  _220
REMARK   95  A    between atoms: _219  and  _222
REMARK   96  A    between atoms: _222  and  _223
REMARK   97  A    between atoms: _225  and  _227
REMARK   98  A    between atoms: _227  and  _228
REMARK   99  A    between atoms: _227  and  _230
REMARK  100  A    between atoms: _233  and  _235
REMARK  101  A    between atoms: _235  and  _236
REMARK  102  A    between atoms: _235  and  _238
REMARK  103  A    between atoms: _238  and  _239
REMARK  104  A    between atoms: _239  and  _240
REMARK  105  A    between atoms: _245  and  _247
REMARK  106  A    between atoms: _247  and  _248
REMARK  107  A    between atoms: _250  and  _252
REMARK  108  A    between atoms: _252  and  _253
REMARK  109  A    between atoms: _252  and  _255
REMARK  110  A    between atoms: _255  and  _256
REMARK  111  A    between atoms: _256  and  _257
REMARK  112  A    between atoms: _262  and  _264
REMARK  113  A    between atoms: _264  and  _265
REMARK  114  A    between atoms: _264  and  _267
REMARK  115  A    between atoms: _267  and  _268
REMARK  116  A    between atoms: _271  and  _273
REMARK  117  A    between atoms: _273  and  _274
REMARK  118  A    between atoms: _273  and  _276
REMARK  119  A    between atoms: _276  and  _277
REMARK  120  A    between atoms: _277  and  _278
REMARK  121  A    between atoms: _281  and  _283
REMARK  122  A    between atoms: _283  and  _284
REMARK  123  A    between atoms: _283  and  _286
REMARK  124  A    between atoms: _286  and  _287
REMARK  125  A    between atoms: _289  and  _291
REMARK  126  A    between atoms: _291  and  _292
REMARK  127  A    between atoms: _291  and  _294
REMARK  128  A    between atoms: _294  and  _295
REMARK  129  A    between atoms: _298  and  _300
REMARK  130  A    between atoms: _300  and  _301
REMARK  131  A    between atoms: _303  and  _305
REMARK  132  A    between atoms: _305  and  _306
REMARK  133  A    between atoms: _308  and  _310
REMARK  134  A    between atoms: _310  and  _311
REMARK  135  A    between atoms: _310  and  _313
REMARK  136  A    between atoms: _313  and  _314
REMARK  137  A    between atoms: _317  and  _319
REMARK  138  A    between atoms: _319  and  _320
REMARK  139  A    between atoms: _319  and  _322
REMARK  140  A    between atoms: _322  and  _323
REMARK  141  A    between atoms: _325  and  _327
REMARK  142  A    between atoms: _327  and  _328
REMARK  143  A    between atoms: _327  and  _330
REMARK  144  A    between atoms: _330  and  _331
REMARK  145  A    between atoms: _336  and  _338
REMARK  146  A    between atoms: _338  and  _339
REMARK  147  A    between atoms: _338  and  _341
REMARK  148  A    between atoms: _341  and  _342
REMARK  149  A    between atoms: _345  and  _347
REMARK  150  A    between atoms: _347  and  _348
REMARK  151  A    between atoms: _351  and  _353
REMARK  152  A    between atoms: _353  and  _354
REMARK  153  A    between atoms: _353  and  _356
REMARK  154  A    between atoms: _356  and  _357
REMARK  155  A    between atoms: _359  and  _361
REMARK  156  A    between atoms: _361  and  _362
REMARK  157  A    between atoms: _361  and  _364
REMARK  158  A    between atoms: _364  and  _365
REMARK  159  A    between atoms: _367  and  _369
REMARK  160  A    between atoms: _369  and  _370
REMARK  161  A    between atoms: _369  and  _372
REMARK  162  A    between atoms: _372  and  _373
REMARK  163  A    between atoms: _373  and  _374
REMARK  164  A    between atoms: _379  and  _381
REMARK  165  A    between atoms: _381  and  _382
REMARK  166  A    between atoms: _381  and  _384
REMARK  167  A    between atoms: _384  and  _385
REMARK  168  A    between atoms: _388  and  _390
REMARK  169  A    between atoms: _390  and  _391
REMARK  170  A    between atoms: _390  and  _393
REMARK  171  A    between atoms: _393  and  _394
REMARK  172  A    between atoms: _400  and  _402
REMARK  173  A    between atoms: _402  and  _403
REMARK  174  A    between atoms: _402  and  _405
REMARK  175  A    between atoms: _405  and  _406
REMARK  176  A    between atoms: _409  and  _411
REMARK  177  A    between atoms: _411  and  _412
REMARK  178  A    between atoms: _411  and  _414
REMARK  179  A    between atoms: _414  and  _415
REMARK  180  A    between atoms: _418  and  _420
REMARK  181  A    between atoms: _420  and  _421
REMARK  182  A    between atoms: _420  and  _423
REMARK  183  A    between atoms: _423  and  _424
REMARK  184  A    between atoms: _424  and  _425
REMARK  185  A    between atoms: _428  and  _430
REMARK  186  A    between atoms: _430  and  _431
REMARK  187  A    between atoms: _430  and  _433
REMARK  188  A    between atoms: _433  and  _434
REMARK  189  A    between atoms: _439  and  _440
REMARK  190  A    between atoms: _442  and  _444
REMARK  191  A    between atoms: _444  and  _445
REMARK  192  A    between atoms: _444  and  _447
REMARK  193  A    between atoms: _447  and  _448
REMARK  194  A    between atoms: _451  and  _453
REMARK  195  A    between atoms: _453  and  _454
REMARK  196  A    between atoms: _453  and  _456
REMARK  197  A    between atoms: _456  and  _457
REMARK  198  A    between atoms: _457  and  _458
REMARK  199  A    between atoms: _463  and  _465
REMARK  200  A    between atoms: _465  and  _466
REMARK  201  A    between atoms: _465  and  _468
REMARK  202  A    between atoms: _468  and  _469
REMARK  203  A    between atoms: _474  and  _475
REMARK  204  A    between atoms: _477  and  _479
REMARK  205  A    between atoms: _479  and  _480
REMARK  206  A    between atoms: _479  and  _482
REMARK  207  A    between atoms: _482  and  _483
REMARK  208  A    between atoms: _486  and  _488
REMARK  209  A    between atoms: _488  and  _489
REMARK  210  A    between atoms: _488  and  _491
REMARK  211  A    between atoms: _491  and  _492
REMARK  212  A    between atoms: _497  and  _498
REMARK  213  A    between atoms: _500  and  _502
REMARK  214  A    between atoms: _502  and  _503
REMARK  215  A    between atoms: _502  and  _505
REMARK  216  A    between atoms: _505  and  _506
REMARK  217  A    between atoms: _511  and  _512
REMARK  218  A    between atoms: _515  and  _516
REMARK  219  A    between atoms: _521  and  _523
REMARK  220  A    between atoms: _523  and  _524
REMARK  221  A    between atoms: _523  and  _526
REMARK  222  A    between atoms: _526  and  _527
REMARK  223  A    between atoms: _530  and  _532
REMARK  224  A    between atoms: _532  and  _533
REMARK  225  A    between atoms: _532  and  _535
REMARK  226  A    between atoms: _535  and  _536
REMARK                            x       y       z     vdW  Elec       q    Type
REMARK                         _______ _______ _______ _____ _____    ______ ____
ROOT
ATOM      1  C   LEU A   7      36.249  21.256  30.107  0.00  0.00    +0.241 C 
ATOM      2  O   LEU A   7      37.116  20.774  30.823  0.00  0.00    -0.273 OA
ATOM      3  N   ALA A   8      36.040  20.863  28.851  0.00  0.00    -0.297 N 
ATOM      4  H   ALA A   8      35.289  21.326  28.300  0.00  0.00    +0.150 HD
ENDROOT
BRANCH   3   5
ATOM      5  CA  ALA A   8      36.827  19.806  28.219  0.00  0.00    +0.149 C 
ATOM      6  CB  ALA A   8      36.232  19.426  26.867  0.00  0.00    +0.031 C 
BRANCH   5   7
ATOM      7  C   ALA A   8      38.284  20.237  28.072  0.00  0.00    +0.241 C 
ATOM      8  N   SER A   9      38.524  21.548  28.137  0.00  0.00    -0.295 N 
ATOM      9  H   SER A   9      37.725  22.194  28.298  0.00  0.00    +0.150 HD
ATOM     10  O   ALA A   8      39.167  19.400  27.935  0.00  0.00    -0.273 OA
BRANCH   8  11
ATOM     11  CA  SER A   9      39.860  22.113  27.992  0.00  0.00    +0.178 C 
BRANCH  11  12
ATOM     12  C   SER A   9      40.569  22.348  29.324  0.00  0.00    +0.243 C 
ATOM     13  N   SER A  10      39.831  22.213  30.423  0.00  0.00    -0.295 N 
ATOM     14  H   SER A  10      38.803  22.093  30.318  0.00  0.00    +0.150 HD
ATOM     15  O   SER A   9      41.764  22.649  29.350  0.00  0.00    -0.273 OA
BRANCH  13  16
ATOM     16  CA  SER A  10      40.396  22.225  31.769  0.00  0.00    +0.178 C 
BRANCH  16  17
ATOM     17  C   SER A  10      41.492  21.168  31.957  0.00  0.00    +0.243 C 
ATOM     18  N   GLN A  11      42.338  21.381  32.962  0.00  0.00    -0.297 N 
ATOM     19  H   GLN A  11      42.250  22.262  33.508  0.00  0.00    +0.150 HD
ATOM     20  O   SER A  10      41.535  20.165  31.248  0.00  0.00    -0.273 OA
BRANCH  18  21
ATOM     21  CA  GLN A  11      43.387  20.430  33.332  0.00  0.00    +0.149 C 
BRANCH  21  22
ATOM     22  C   GLN A  11      42.868  19.115  33.893  0.00  0.00    +0.241 C 
ATOM     23  N   LEU A  12      41.699  19.148  34.523  0.00  0.00    -0.297 N 
ATOM     24  H   LEU A  12      41.164  20.039  34.559  0.00  0.00    +0.150 HD
ATOM     25  O   GLN A  11      43.499  18.076  33.723  0.00  0.00    -0.273 OA
BRANCH  23  26
ATOM     26  CA  LEU A  12      41.151  17.958  35.166  0.00  0.00    +0.149 C 
BRANCH  26  27
ATOM     27  C   LEU A  12      40.508  16.976  34.211  0.00  0.00    +0.241 C 
ATOM     28  O   LEU A  12      40.287  15.821  34.570  0.00  0.00    -0.273 OA
ATOM     29  N   PHE A  13      40.198  17.428  33.000  0.00  0.00    -0.298 N 
ATOM     30  H   PHE A  13      40.379  18.423  32.758  0.00  0.00    +0.150 HD
BRANCH  29  31
ATOM     31  CA  PHE A  13      39.609  16.541  32.014  0.00  0.00    +0.141 C 
BRANCH  31  32
ATOM     32  C   PHE A  13      40.593  16.145  30.903  0.00  0.00    +0.227 C 
ATOM     33  O   PHE A  13      41.417  16.947  30.459  0.00  0.00    -0.286 OA
ENDBRANCH  31  32
BRANCH  31  34
ATOM     34  CB  PHE A  13      38.303  17.117  31.457  0.00  0.00    +0.054 C 
BRANCH  34  35
ATOM     35  CG  PHE A  13      37.148  17.015  32.420  0.00  0.00    -0.020 A 
ATOM     36  CD2 PHE A  13      36.939  17.994  33.387  0.00  0.00    -0.004 A 
ATOM     37  CE2 PHE A  13      35.871  17.895  34.299  0.00  0.00    -0.000 A 
ATOM     38  CZ  PHE A  13      35.027  16.807  34.243  0.00  0.00    -0.000 A 
ATOM     39  CE1 PHE A  13      35.229  15.823  33.281  0.00  0.00    -0.000 A 
ATOM     40  CD1 PHE A  13      36.291  15.931  32.379  0.00  0.00    -0.004 A 
ENDBRANCH  34  35
ENDBRANCH  31  34
ENDBRANCH  29  31
ENDBRANCH  26  27
BRANCH  26  41
ATOM     41  CB  LEU A  12      40.152  18.339  36.253  0.00  0.00    +0.029 C 
BRANCH  41  42
ATOM     42  CG  LEU A  12      40.849  18.732  37.550  0.00  0.00    +0.002 C 
ATOM     43  CD2 LEU A  12      40.099  18.182  38.730  0.00  0.00    +0.000 C 
ATOM     44  CD1 LEU A  12      40.992  20.248  37.639  0.00  0.00    +0.000 C 
ENDBRANCH  41  42
ENDBRANCH  26  41
ENDBRANCH  23  26
ENDBRANCH  21  22
BRANCH  21  45
ATOM     45  CB  GLN A  11      44.385  21.080  34.296  0.00  0.00    +0.039 C 
BRANCH  45  46
ATOM     46  CG  GLN A  11      45.423  21.943  33.578  0.00  0.00    +0.087 C 
BRANCH  46  47
ATOM     47  CD  GLN A  11      46.316  21.126  32.631  0.00  0.00    +0.219 C 
ATOM     48  NE2 GLN A  11      47.159  20.263  33.207  0.00  0.00    -0.329 N 
ATOM     49 HE21 GLN A  11      47.195  20.184  34.243  0.00  0.00    +0.145 HD
ATOM     50 HE22 GLN A  11      47.779  19.670  32.619  0.00  0.00    +0.145 HD
ATOM     51  OE1 GLN A  11      46.236  21.257  31.400  0.00  0.00    -0.275 OA
ENDBRANCH  46  47
ENDBRANCH  45  46
ENDBRANCH  21  45
ENDBRANCH  18  21
ENDBRANCH  16  17
BRANCH  16  52
ATOM     52  CB  SER A  10      39.284  21.954  32.778  0.00  0.00    +0.166 C 
BRANCH  52  53
ATOM     53  OG  SER A  10      39.791  21.284  33.927  0.00  0.00    -0.380 OA
ATOM     54  H   SER A  10      39.052  21.120  34.565  0.00  0.00    +0.211 HD
ENDBRANCH  52  53
ENDBRANCH  16  52
ENDBRANCH  13  16
ENDBRANCH  11  12
BRANCH  11  55
ATOM     55  CB  SER A   9      39.797  23.405  27.174  0.00  0.00    +0.166 C 
BRANCH  55  56
ATOM     56  OG  SER A   9      39.588  23.102  25.793  0.00  0.00    -0.380 OA
ATOM     57  H   SER A   9      38.735  22.609  25.690  0.00  0.00    +0.211 HD
ENDBRANCH  55  56
ENDBRANCH  11  55
ENDBRANCH   8  11
ENDBRANCH   5   7
ENDBRANCH   3   5
BRANCH   1  58
ATOM     58  CA  LEU A   7      35.311  22.359  30.645  0.00  0.00    +0.149 C 
BRANCH  58  61
ATOM     59  C   ASN A   6      36.141  24.138  29.225  0.00  0.00    +0.241 C 
ATOM     60  O   ASN A   6      37.283  23.976  29.644  0.00  0.00    -0.273 OA
ATOM     61  N   LEU A   7      35.117  23.396  29.639  0.00  0.00    -0.297 N 
ATOM     62  H   LEU A   7      34.170  23.557  29.241  0.00  0.00    +0.150 HD
BRANCH  59  63
ATOM     63  CA  ASN A   6      35.851  25.213  28.206  0.00  0.00    +0.158 C 
BRANCH  63  65
ATOM     64  C   SER A   5      35.524  23.928  26.148  0.00  0.00    +0.243 C 
ATOM     65  N   ASN A   6      35.040  24.751  27.075  0.00  0.00    -0.297 N 
ATOM     66  H   ASN A   6      34.056  25.077  26.995  0.00  0.00    +0.150 HD
ATOM     67  O   SER A   5      36.697  23.585  26.134  0.00  0.00    -0.273 OA
BRANCH  64  68
ATOM     68  CA  SER A   5      34.527  23.375  25.106  0.00  0.00    +0.178 C 
BRANCH  68  71
ATOM     69  C   ILE A   4      33.000  22.309  26.663  0.00  0.00    +0.241 C 
ATOM     70  O   ILE A   4      33.888  21.717  27.278  0.00  0.00    -0.273 OA
ATOM     71  N   SER A   5      33.227  23.148  25.666  0.00  0.00    -0.295 N 
ATOM     72  H   SER A   5      32.421  23.670  25.268  0.00  0.00    +0.150 HD
BRANCH  69  73
ATOM     73  CA  ILE A   4      31.529  22.173  27.045  0.00  0.00    +0.149 C 
BRANCH  73  76
ATOM     74  C   GLY A   3      31.432  24.467  27.954  0.00  0.00    +0.243 C 
ATOM     75  O   GLY A   3      32.419  24.284  28.685  0.00  0.00    -0.273 OA
ATOM     76  N   ILE A   4      30.916  23.520  27.168  0.00  0.00    -0.297 N 
ATOM     77  H   ILE A   4      30.056  23.732  26.623  0.00  0.00    +0.150 HD
BRANCH  74  78
ATOM     78  CA  GLY A   3      30.726  25.824  27.957  0.00  0.00    +0.176 C 
BRANCH  78  80
ATOM     79  C   GLY A   2      30.805  26.444  25.603  0.00  0.00    +0.243 C 
ATOM     80  N   GLY A   3      30.102  26.237  26.706  0.00  0.00    -0.295 N 
ATOM     81  H   GLY A   3      29.071  26.374  26.679  0.00  0.00    +0.150 HD
ATOM     82  O   GLY A   2      31.955  26.059  25.464  0.00  0.00    -0.273 OA
BRANCH  79  83
ATOM     83  CA  GLY A   2      30.107  27.163  24.485  0.00  0.00    +0.176 C 
BRANCH  83  85
ATOM     84  C   ILE A   1      29.745  25.661  22.601  0.00  0.00    +0.238 C 
ATOM     85  N   GLY A   2      30.471  26.609  23.180  0.00  0.00    -0.296 N 
ATOM     86  H   GLY A   2      31.319  26.967  22.695  0.00  0.00    +0.150 HD
ATOM     87  O   ILE A   1      28.761  25.132  23.140  0.00  0.00    -0.274 OA
BRANCH  84  88
ATOM     88  CA  ILE A   1      30.215  25.204  21.224  0.00  0.00    +0.145 C 
BRANCH  88  89
ATOM     89  CB  ILE A   1      30.041  26.342  20.190  0.00  0.00    +0.025 C 
ATOM     90  CG2 ILE A   1      30.775  26.034  18.880  0.00  0.00    +0.002 C 
BRANCH  89  91
ATOM     91  CG1 ILE A   1      28.560  26.645  19.918  0.00  0.00    +0.002 C 
ATOM     92  CD1 ILE A   1      28.377  27.999  19.237  0.00  0.00    +0.000 C 
ENDBRANCH  89  91
ENDBRANCH  88  89
BRANCH  88  93
ATOM     93  N   ILE A   1      29.479  23.995  20.890  0.00  0.00    -0.238 NA
ATOM     94  H   ILE A   1      28.440  24.009  20.930  0.00  0.00    +0.142 HD
ENDBRANCH  88  93
ENDBRANCH  84  88
ENDBRANCH  83  85
ENDBRANCH  79  83
ENDBRANCH  78  80
ENDBRANCH  74  78
ENDBRANCH  73  76
BRANCH  73  95
ATOM     95  CB  ILE A   4      30.788  21.285  26.006  0.00  0.00    +0.027 C 
ATOM     96  CG2 ILE A   4      31.768  20.499  25.133  0.00  0.00    +0.002 C 
BRANCH  95  97
ATOM     97  CG1 ILE A   4      29.987  20.220  26.711  0.00  0.00    +0.002 C 
ATOM     98  CD1 ILE A   4      29.532  19.120  25.771  0.00  0.00    +0.000 C 
ENDBRANCH  95  97
ENDBRANCH  73  95
ENDBRANCH  69  73
ENDBRANCH  68  71
BRANCH  68  99
ATOM     99  CB  SER A   5      34.343  24.266  23.885  0.00  0.00    +0.166 C 
BRANCH  99 100
ATOM    100  OG  SER A   5      35.074  25.458  24.045  0.00  0.00    -0.380 OA
ATOM    101  H   SER A   5      34.948  26.030  23.247  0.00  0.00    +0.211 HD
ENDBRANCH  99 100
ENDBRANCH  68  99
ENDBRANCH  64  68
ENDBRANCH  63  65
BRANCH  63 102
ATOM    102  CB  ASN A   6      35.180  26.398  28.898  0.00  0.00    +0.114 C 
BRANCH 102 103
ATOM    103  CG  ASN A   6      34.927  27.535  27.956  0.00  0.00    +0.222 C 
ATOM    104  OD1 ASN A   6      33.784  27.900  27.712  0.00  0.00    -0.275 OA
ATOM    105  ND2 ASN A   6      35.993  28.111  27.413  0.00  0.00    -0.329 N 
ATOM    106 HD21 ASN A   6      36.946  27.768  27.649  0.00  0.00    +0.145 HD
ATOM    107 HD22 ASN A   6      35.875  28.905  26.752  0.00  0.00    +0.145 HD
ENDBRANCH 102 103
ENDBRANCH  63 102
ENDBRANCH  59  63
ENDBRANCH  58  61
BRANCH  58 108
ATOM    108  CB  LEU A   7      33.967  21.770  31.109  0.00  0.00    +0.029 C 
BRANCH 108 109
ATOM    109  CG  LEU A   7      33.983  20.451  31.892  0.00  0.00    +0.002 C 
ATOM    110  CD2 LEU A   7      32.790  20.270  32.804  0.00  0.00    +0.000 C 
ATOM    111  CD1 LEU A   7      34.043  19.300  30.932  0.00  0.00    +0.000 C 
ENDBRANCH 108 109
ENDBRANCH  58 108
ENDBRANCH   1  58
TORSDOF 47
REMARK  Name = ../refined-set-2016/3aaq/3aaq_pocket.pdb
REMARK  226 active torsions:
REMARK  status: ('A' for Active; 'I' for Inactive)
REMARK    1  A    between atoms: _1  and  _3
REMARK    2  A    between atoms: _3  and  _4
REMARK    3  A    between atoms: _3  and  _6
REMARK    4  A    between atoms: _6  and  _7
REMARK    5  A    between atoms: _10  and  _12
REMARK    6  A    between atoms: _12  and  _13
REMARK    7  A    between atoms: _16  and  _18
REMARK    8  A    between atoms: _18  and  _19
REMARK    9  A    between atoms: _21  and  _23
REMARK   10  A    between atoms: _23  and  _24
REMARK   11  A    between atoms: _23  and  _26
REMARK   12  A    between atoms: _26  and  _27
REMARK   13  A    between atoms: _29  and  _31
REMARK   14  A    between atoms: _31  and  _32
REMARK   15  A    between atoms: _31  and  _34
REMARK   16  A    between atoms: _34  and  _35
REMARK   17  A    between atoms: _38  and  _40
REMARK   18  A    between atoms: _40  and  _41
REMARK   19  A    between atoms: _43  and  _45
REMARK   20  A    between atoms: _45  and  _46
REMARK   21  A    between atoms: _45  and  _48
REMARK   22  A    between atoms: _48  and  _49
REMARK   23  A    between atoms: _51  and  _53
REMARK   24  A    between atoms: _53  and  _54
REMARK   25  A    between atoms: _53  and  _56
REMARK   26  A    between atoms: _56  and  _57
REMARK   27  A    between atoms: _57  and  _58
REMARK   28  A    between atoms: _58  and  _59
REMARK   29  A    between atoms: _68  and  _70
REMARK   30  A    between atoms: _70  and  _71
REMARK   31  A    between atoms: _70  and  _73
REMARK   32  A    between atoms: _73  and  _74
REMARK   33  A    between atoms: _74  and  _75
REMARK   34  A    between atoms: _75  and  _76
REMARK   35  A    between atoms: _76  and  _77
REMARK   36  A    between atoms: _81  and  _83
REMARK   37  A    between atoms: _83  and  _84
REMARK   38  A    between atoms: _83  and  _86
REMARK   39  A    between atoms: _86  and  _87
REMARK   40  A    between atoms: _90  and  _92
REMARK   41  A    between atoms: _92  and  _93
REMARK   42  A    between atoms: _92  and  _95
REMARK   43  A    between atoms: _95  and  _96
REMARK   44  A    between atoms: _96  and  _97
REMARK   45  A    between atoms: _97  and  _98
REMARK   46  A    between atoms: _98  and  _99
REMARK   47  A    between atoms: _104  and  _105
REMARK   48  A    between atoms: _110  and  _112
REMARK   49  A    between atoms: _112  and  _113
REMARK   50  A    between atoms: _115  and  _117
REMARK   51  A    between atoms: _117  and  _118
REMARK   52  A    between atoms: _117  and  _120
REMARK   53  A    between atoms: _120  and  _121
REMARK   54  A    between atoms: _127  and  _129
REMARK   55  A    between atoms: _129  and  _130
REMARK   56  A    between atoms: _129  and  _132
REMARK   57  A    between atoms: _132  and  _133
REMARK   58  A    between atoms: _136  and  _138
REMARK   59  A    between atoms: _138  and  _139
REMARK   60  A    between atoms: _142  and  _144
REMARK   61  A    between atoms: _144  and  _145
REMARK   62  A    between atoms: _147  and  _149
REMARK   63  A    between atoms: _149  and  _150
REMARK   64  A    between atoms: _149  and  _152
REMARK   65  A    between atoms: _152  and  _153
REMARK   66  A    between atoms: _153  and  _154
REMARK   67  A    between atoms: _156  and  _158
REMARK   68  A    between atoms: _158  and  _159
REMARK   69  A    between atoms: _158  and  _161
REMARK   70  A    between atoms: _161  and  _162
REMARK   71  A    between atoms: _162  and  _163
REMARK   72  A    between atoms: _163  and  _164
REMARK   73  A    between atoms: _173  and  _175
REMARK   74  A    between atoms: _175  and  _176
REMARK   75  A    between atoms: _175  and  _178
REMARK   76  A    between atoms: _178  and  _179
REMARK   77  A    between atoms: _179  and  _180
REMARK   78  A    between atoms: _183  and  _185
REMARK   79  A    between atoms: _185  and  _186
REMARK   80  A    between atoms: _185  and  _188
REMARK   81  A    between atoms: _188  and  _189
REMARK   82  A    between atoms: _192  and  _194
REMARK   83  A    between atoms: _194  and  _195
REMARK   84  A    between atoms: _194  and  _197
REMARK   85  A    between atoms: _197  and  _198
REMARK   86  A    between atoms: _198  and  _199
REMARK   87  A    between atoms: _201  and  _203
REMARK   88  A    between atoms: _203  and  _204
REMARK   89  A    between atoms: _206  and  _208
REMARK   90  A    between atoms: _208  and  _209
REMARK   91  A    between atoms: _211  and  _213
REMARK   92  A    between atoms: _213  and  _214
REMARK   93  A    between atoms: _217  and  _219
REMARK   94  A    between atoms: _219  and  _220
REMARK   95  A    between atoms: _219  and  _222
REMARK   96  A    between atoms: _222  and  _223
REMARK   97  A    between atoms: _225  and  _227
REMARK   98  A    between atoms: _227  and  _228
REMARK   99  A    between atoms: _227  and  _230
REMARK  100  A    between atoms: _233  and  _235
REMARK  101  A    between atoms: _235  and  _236
REMARK  102  A    between atoms: _235  and  _238
REMARK  103  A    between atoms: _238  and  _239
REMARK  104  A    between atoms: _239  and  _240
REMARK  105  A    between atoms: _245  and  _247
REMARK  106  A    between atoms: _247  and  _248
REMARK  107  A    between atoms: _250  and  _252
REMARK  108  A    between atoms: _252  and  _253
REMARK  109  A    between atoms: _252  and  _255
REMARK  110  A    between atoms: _255  and  _256
REMARK  111  A    between atoms: _256  and  _257
REMARK  112  A    between atoms: _262  and  _264
REMARK  113  A    between atoms: _264  and  _265
REMARK  114  A    between atoms: _264  and  _267
REMARK  115  A    between atoms: _267  and  _268
REMARK  116  A    between atoms: _271  and  _273
REMARK  117  A    between atoms: _273  and  _274
REMARK  118  A    between atoms: _273  and  _276
REMARK  119  A    between atoms: _276  and  _277
REMARK  120  A    between atoms: _277  and  _278
REMARK  121  A    between atoms: _281  and  _283
REMARK  122  A    between atoms: _283  and  _284
REMARK  123  A    between atoms: _283  and  _286
REMARK  124  A    between atoms: _286  and  _287
REMARK  125  A    between atoms: _289  and  _291
REMARK  126  A    between atoms: _291  and  _292
REMARK  127  A    between atoms: _291  and  _294
REMARK  128  A    between atoms: _294  and  _295
REMARK  129  A    between atoms: _298  and  _300
REMARK  130  A    between atoms: _300  and  _301
REMARK  131  A    between atoms: _303  and  _305
REMARK  132  A    between atoms: _305  and  _306
REMARK  133  A    between atoms: _308  and  _310
REMARK  134  A    between atoms: _310  and  _311
REMARK  135  A    between atoms: _310  and  _313
REMARK  136  A    between atoms: _313  and  _314
REMARK  137  A    between atoms: _317  and  _319
REMARK  138  A    between atoms: _319  and  _320
REMARK  139  A    between atoms: _319  and  _322
REMARK  140  A    between atoms: _322  and  _323
REMARK  141  A    between atoms: _325  and  _327
REMARK  142  A    between atoms: _327  and  _328
REMARK  143  A    between atoms: _327  and  _330
REMARK  144  A    between atoms: _330  and  _331
REMARK  145  A    between atoms: _336  and  _338
REMARK  146  A    between atoms: _338  and  _339
REMARK  147  A    between atoms: _338  and  _341
REMARK  148  A    between atoms: _341  and  _342
REMARK  149  A    between atoms: _345  and  _347
REMARK  150  A    between atoms: _347  and  _348
REMARK  151  A    between atoms: _351  and  _353
REMARK  152  A    between atoms: _353  and  _354
REMARK  153  A    between atoms: _353  and  _356
REMARK  154  A    between atoms: _356  and  _357
REMARK  155  A    between atoms: _359  and  _361
REMARK  156  A    between atoms: _361  and  _362
REMARK  157  A    between atoms: _361  and  _364
REMARK  158  A    between atoms: _364  and  _365
REMARK  159  A    between atoms: _367  and  _369
REMARK  160  A    between atoms: _369  and  _370
REMARK  161  A    between atoms: _369  and  _372
REMARK  162  A    between atoms: _372  and  _373
REMARK  163  A    between atoms: _373  and  _374
REMARK  164  A    between atoms: _379  and  _381
REMARK  165  A    between atoms: _381  and  _382
REMARK  166  A    between atoms: _381  and  _384
REMARK  167  A    between atoms: _384  and  _385
REMARK  168  A    between atoms: _388  and  _390
REMARK  169  A    between atoms: _390  and  _391
REMARK  170  A    between atoms: _390  and  _393
REMARK  171  A    between atoms: _393  and  _394
REMARK  172  A    between atoms: _400  and  _402
REMARK  173  A    between atoms: _402  and  _403
REMARK  174  A    between atoms: _402  and  _405
REMARK  175  A    between atoms: _405  and  _406
REMARK  176  A    between atoms: _409  and  _411
REMARK  177  A    between atoms: _411  and  _412
REMARK  178  A    between atoms: _411  and  _414
REMARK  179  A    between atoms: _414  and  _415
REMARK  180  A    between atoms: _418  and  _420
REMARK  181  A    between atoms: _420  and  _421
REMARK  182  A    between atoms: _420  and  _423
REMARK  183  A    between atoms: _423  and  _424
REMARK  184  A    between atoms: _424  and  _425
REMARK  185  A    between atoms: _428  and  _430
REMARK  186  A    between atoms: _430  and  _431
REMARK  187  A    between atoms: _430  and  _433
REMARK  188  A    between atoms: _433  and  _434
REMARK  189  A    between atoms: _439  and  _440
REMARK  190  A    between atoms: _442  and  _444
REMARK  191  A    between atoms: _444  and  _445
REMARK  192  A    between atoms: _444  and  _447
REMARK  193  A    between atoms: _447  and  _448
REMARK  194  A    between atoms: _451  and  _453
REMARK  195  A    between atoms: _453  and  _454
REMARK  196  A    between atoms: _453  and  _456
REMARK  197  A    between atoms: _456  and  _457
REMARK  198  A    between atoms: _457  and  _458
REMARK  199  A    between atoms: _463  and  _465
REMARK  200  A    between atoms: _465  and  _466
REMARK  201  A    between atoms: _465  and  _468
REMARK  202  A    between atoms: _468  and  _469
REMARK  203  A    between atoms: _474  and  _475
REMARK  204  A    between atoms: _477  and  _479
REMARK  205  A    between atoms: _479  and  _480
REMARK  206  A    between atoms: _479  and  _482
REMARK  207  A    between atoms: _482  and  _483
REMARK  208  A    between atoms: _486  and  _488
REMARK  209  A    between atoms: _488  and  _489
REMARK  210  A    between atoms: _488  and  _491
REMARK  211  A    between atoms: _491  and  _492
REMARK  212  A    between atoms: _497  and  _498
REMARK  213  A    between atoms: _500  and  _502
REMARK  214  A    between atoms: _502  and  _503
REMARK  215  A    between atoms: _502  and  _505
REMARK  216  A    between atoms: _505  and  _506
REMARK  217  A    between atoms: _511  and  _512
REMARK  218  A    between atoms: _515  and  _516
REMARK  219  A    between atoms: _521  and  _523
REMARK  220  A    between atoms: _523  and  _524
REMARK  221  A    between atoms: _523  and  _526
REMARK  222  A    between atoms: _526  and  _527
REMARK  223  A    between atoms: _530  and  _532
REMARK  224  A    between atoms: _532  and  _533
REMARK  225  A    between atoms: _532  and  _535
REMARK  226  A    between atoms: _535  and  _536
REMARK                            x       y       z     vdW  Elec       q    Type
REMARK                         _______ _______ _______ _____ _____    ______ ____
ROOT
ATOM      1  CA  GLU A   3      37.925  29.269  39.530  0.00  0.00    +0.149 C 
ENDROOT
BRANCH   1   4
ATOM      2  C   ASP A   2      39.677  27.680  39.072  0.00  0.00    +0.241 C 
ATOM      3  O   ASP A   2      39.226  26.950  39.955  0.00  0.00    -0.273 OA
ATOM      4  N   GLU A   3      39.096  28.830  38.755  0.00  0.00    -0.297 N 
ATOM      5  H   GLU A   3      39.462  29.410  37.973  0.00  0.00    +0.150 HD
BRANCH   2   6
ATOM      6  CA  ASP A   2      40.938  27.288  38.284  0.00  0.00    +0.160 C 
BRANCH   6   8
ATOM      7  C   ASP A   1      42.621  28.870  39.188  0.00  0.00    +0.239 C 
ATOM      8  N   ASP A   2      42.173  27.623  39.017  0.00  0.00    -0.297 N 
ATOM      9  H   ASP A   2      42.727  26.843  39.425  0.00  0.00    +0.150 HD
ATOM     10  O   ASP A   1      42.013  29.865  38.817  0.00  0.00    -0.274 OA
BRANCH   7  11
ATOM     11  CA  ASP A   1      43.962  29.029  39.897  0.00  0.00    +0.156 C 
BRANCH  11  12
ATOM     12  N   ASP A   1      44.257  27.944  40.830  0.00  0.00    -0.238 NA
ATOM     13  H   ASP A   1      44.844  27.147  40.511  0.00  0.00    +0.142 HD
ENDBRANCH  11  12
BRANCH  11  14
ATOM     14  CB  ASP A   1      45.084  29.174  38.864  0.00  0.00    +0.140 C 
BRANCH  14  15
ATOM     15  CG  ASP A   1      46.449  29.423  39.507  0.00  0.00    +0.367 C 
ATOM     16  OD2 ASP A   1      46.511  29.749  40.722  0.00  0.00    -0.246 OA
ATOM     17  OD1 ASP A   1      47.467  29.291  38.794  0.00  0.00    -0.246 OA
ENDBRANCH  14  15
ENDBRANCH  11  14
ENDBRANCH   7  11
ENDBRANCH   6   8
BRANCH   6  18
ATOM     18  CB  ASP A   2      40.935  25.784  37.980  0.00  0.00    +0.143 C 
BRANCH  18  19
ATOM     19  CG  ASP A   2      39.990  25.395  36.844  0.00  0.00    +0.367 C 
ATOM     20  OD2 ASP A   2      39.088  26.177  36.463  0.00  0.00    -0.246 OA
ATOM     21  OD1 ASP A   2      40.163  24.269  36.332  0.00  0.00    -0.246 OA
ENDBRANCH  18  19
ENDBRANCH   6  18
ENDBRANCH   2   6
ENDBRANCH   1   4
BRANCH   1  22
ATOM     22  C   GLU A   3      36.594  28.641  39.100  0.00  0.00    +0.241 C 
ATOM     23  O   GLU A   3      35.567  28.930  39.680  0.00  0.00    -0.273 OA
ATOM     24  N   TYR A   4      36.658  27.728  38.157  0.00  0.00    -0.297 N 
ATOM     25  H   TYR A   4      37.578  27.524  37.716  0.00  0.00    +0.150 HD
BRANCH  24  26
ATOM     26  CA  TYR A   4      35.506  27.006  37.717  0.00  0.00    +0.153 C 
BRANCH  26  27
ATOM     27  C   TYR A   4      35.497  25.586  38.234  0.00  0.00    +0.241 C 
ATOM     28  N   LEU A   5      36.614  25.174  38.799  0.00  0.00    -0.298 N 
ATOM     29  H   LEU A   5      37.405  25.848  38.824  0.00  0.00    +0.150 HD
ATOM     30  O   TYR A   4      34.537  24.924  38.130  0.00  0.00    -0.273 OA
BRANCH  28  31
ATOM     31  CA  LEU A   5      36.844  23.869  39.389  0.00  0.00    +0.137 C 
BRANCH  31  32
ATOM     32  C   LEU A   5      35.700  23.313  40.243  0.00  0.00    +0.227 C 
ATOM     33  O   LEU A   5      35.300  22.173  40.058  0.00  0.00    -0.286 OA
ENDBRANCH  31  32
BRANCH  31  34
ATOM     34  CB  LEU A   5      38.132  23.912  40.229  0.00  0.00    +0.028 C 
BRANCH  34  35
ATOM     35  CG  LEU A   5      38.602  22.608  40.872  0.00  0.00    +0.002 C 
ATOM     36  CD2 LEU A   5      39.846  22.864  41.744  0.00  0.00    +0.000 C 
ATOM     37  CD1 LEU A   5      38.910  21.573  39.809  0.00  0.00    +0.000 C 
ENDBRANCH  34  35
ENDBRANCH  31  34
ENDBRANCH  28  31
ENDBRANCH  26  27
BRANCH  26  38
ATOM     38  CB  TYR A   4      35.444  27.018  36.210  0.00  0.00    +0.055 C 
BRANCH  38  39
ATOM     39  CG  TYR A   4      34.705  28.191  35.616  0.00  0.00    -0.020 A 
ATOM     40  CD2 TYR A   4      33.335  28.188  35.530  0.00  0.00    -0.001 A 
ATOM     41  CE2 TYR A   4      32.646  29.242  34.978  0.00  0.00    +0.036 A 
ATOM     42  CZ  TYR A   4      33.326  30.334  34.510  0.00  0.00    +0.134 A 
ATOM     43  CE1 TYR A   4      34.693  30.370  34.589  0.00  0.00    +0.036 A 
ATOM     44  CD1 TYR A   4      35.378  29.294  35.145  0.00  0.00    -0.001 A 
BRANCH  42  45
ATOM     45  OH  TYR A   4      32.630  31.371  33.974  0.00  0.00    -0.506 OA
ATOM     46  HH  TYR A   4      31.662  31.167  34.002  0.00  0.00    +0.292 HD
ENDBRANCH  42  45
ENDBRANCH  38  39
ENDBRANCH  26  38
ENDBRANCH  24  26
ENDBRANCH   1  22
BRANCH   1  47
ATOM     47  CB  GLU A   3      37.830  30.801  39.657  0.00  0.00    +0.041 C 
BRANCH  47  48
ATOM     48  CG  GLU A   3      38.147  31.612  38.410  0.00  0.00    +0.116 C 
BRANCH  48  49
ATOM     49  CD  GLU A   3      38.315  33.108  38.745  0.00  0.00    +0.365 C 
ATOM     50  OE2 GLU A   3      39.070  33.441  39.702  0.00  0.00    -0.246 OA
ATOM     51  OE1 GLU A   3      37.675  33.946  38.056  0.00  0.00    -0.246 OA
ENDBRANCH  48  49
ENDBRANCH  47  48
ENDBRANCH   1  47
TORSDOF 22
REMARK  Name = ../refined-set-2016/3aaq/3aaq_pocket.pdb
REMARK  226 active torsions:
REMARK  status: ('A' for Active; 'I' for Inactive)
REMARK    1  A    between atoms: _1  and  _3
REMARK    2  A    between atoms: _3  and  _4
REMARK    3  A    between atoms: _3  and  _6
REMARK    4  A    between atoms: _6  and  _7
REMARK    5  A    between atoms: _10  and  _12
REMARK    6  A    between atoms: _12  and  _13
REMARK    7  A    between atoms: _16  and  _18
REMARK    8  A    between atoms: _18  and  _19
REMARK    9  A    between atoms: _21  and  _23
REMARK   10  A    between atoms: _23  and  _24
REMARK   11  A    between atoms: _23  and  _26
REMARK   12  A    between atoms: _26  and  _27
REMARK   13  A    between atoms: _29  and  _31
REMARK   14  A    between atoms: _31  and  _32
REMARK   15  A    between atoms: _31  and  _34
REMARK   16  A    between atoms: _34  and  _35
REMARK   17  A    between atoms: _38  and  _40
REMARK   18  A    between atoms: _40  and  _41
REMARK   19  A    between atoms: _43  and  _45
REMARK   20  A    between atoms: _45  and  _46
REMARK   21  A    between atoms: _45  and  _48
REMARK   22  A    between atoms: _48  and  _49
REMARK   23  A    between atoms: _51  and  _53
REMARK   24  A    between atoms: _53  and  _54
REMARK   25  A    between atoms: _53  and  _56
REMARK   26  A    between atoms: _56  and  _57
REMARK   27  A    between atoms: _57  and  _58
REMARK   28  A    between atoms: _58  and  _59
REMARK   29  A    between atoms: _68  and  _70
REMARK   30  A    between atoms: _70  and  _71
REMARK   31  A    between atoms: _70  and  _73
REMARK   32  A    between atoms: _73  and  _74
REMARK   33  A    between atoms: _74  and  _75
REMARK   34  A    between atoms: _75  and  _76
REMARK   35  A    between atoms: _76  and  _77
REMARK   36  A    between atoms: _81  and  _83
REMARK   37  A    between atoms: _83  and  _84
REMARK   38  A    between atoms: _83  and  _86
REMARK   39  A    between atoms: _86  and  _87
REMARK   40  A    between atoms: _90  and  _92
REMARK   41  A    between atoms: _92  and  _93
REMARK   42  A    between atoms: _92  and  _95
REMARK   43  A    between atoms: _95  and  _96
REMARK   44  A    between atoms: _96  and  _97
REMARK   45  A    between atoms: _97  and  _98
REMARK   46  A    between atoms: _98  and  _99
REMARK   47  A    between atoms: _104  and  _105
REMARK   48  A    between atoms: _110  and  _112
REMARK   49  A    between atoms: _112  and  _113
REMARK   50  A    between atoms: _115  and  _117
REMARK   51  A    between atoms: _117  and  _118
REMARK   52  A    between atoms: _117  and  _120
REMARK   53  A    between atoms: _120  and  _121
REMARK   54  A    between atoms: _127  and  _129
REMARK   55  A    between atoms: _129  and  _130
REMARK   56  A    between atoms: _129  and  _132
REMARK   57  A    between atoms: _132  and  _133
REMARK   58  A    between atoms: _136  and  _138
REMARK   59  A    between atoms: _138  and  _139
REMARK   60  A    between atoms: _142  and  _144
REMARK   61  A    between atoms: _144  and  _145
REMARK   62  A    between atoms: _147  and  _149
REMARK   63  A    between atoms: _149  and  _150
REMARK   64  A    between atoms: _149  and  _152
REMARK   65  A    between atoms: _152  and  _153
REMARK   66  A    between atoms: _153  and  _154
REMARK   67  A    between atoms: _156  and  _158
REMARK   68  A    between atoms: _158  and  _159
REMARK   69  A    between atoms: _158  and  _161
REMARK   70  A    between atoms: _161  and  _162
REMARK   71  A    between atoms: _162  and  _163
REMARK   72  A    between atoms: _163  and  _164
REMARK   73  A    between atoms: _173  and  _175
REMARK   74  A    between atoms: _175  and  _176
REMARK   75  A    between atoms: _175  and  _178
REMARK   76  A    between atoms: _178  and  _179
REMARK   77  A    between atoms: _179  and  _180
REMARK   78  A    between atoms: _183  and  _185
REMARK   79  A    between atoms: _185  and  _186
REMARK   80  A    between atoms: _185  and  _188
REMARK   81  A    between atoms: _188  and  _189
REMARK   82  A    between atoms: _192  and  _194
REMARK   83  A    between atoms: _194  and  _195
REMARK   84  A    between atoms: _194  and  _197
REMARK   85  A    between atoms: _197  and  _198
REMARK   86  A    between atoms: _198  and  _199
REMARK   87  A    between atoms: _201  and  _203
REMARK   88  A    between atoms: _203  and  _204
REMARK   89  A    between atoms: _206  and  _208
REMARK   90  A    between atoms: _208  and  _209
REMARK   91  A    between atoms: _211  and  _213
REMARK   92  A    between atoms: _213  and  _214
REMARK   93  A    between atoms: _217  and  _219
REMARK   94  A    between atoms: _219  and  _220
REMARK   95  A    between atoms: _219  and  _222
REMARK   96  A    between atoms: _222  and  _223
REMARK   97  A    between atoms: _225  and  _227
REMARK   98  A    between atoms: _227  and  _228
REMARK   99  A    between atoms: _227  and  _230
REMARK  100  A    between atoms: _233  and  _235
REMARK  101  A    between atoms: _235  and  _236
REMARK  102  A    between atoms: _235  and  _238
REMARK  103  A    between atoms: _238  and  _239
REMARK  104  A    between atoms: _239  and  _240
REMARK  105  A    between atoms: _245  and  _247
REMARK  106  A    between atoms: _247  and  _248
REMARK  107  A    between atoms: _250  and  _252
REMARK  108  A    between atoms: _252  and  _253
REMARK  109  A    between atoms: _252  and  _255
REMARK  110  A    between atoms: _255  and  _256
REMARK  111  A    between atoms: _256  and  _257
REMARK  112  A    between atoms: _262  and  _264
REMARK  113  A    between atoms: _264  and  _265
REMARK  114  A    between atoms: _264  and  _267
REMARK  115  A    between atoms: _267  and  _268
REMARK  116  A    between atoms: _271  and  _273
REMARK  117  A    between atoms: _273  and  _274
REMARK  118  A    between atoms: _273  and  _276
REMARK  119  A    between atoms: _276  and  _277
REMARK  120  A    between atoms: _277  and  _278
REMARK  121  A    between atoms: _281  and  _283
REMARK  122  A    between atoms: _283  and  _284
REMARK  123  A    between atoms: _283  and  _286
REMARK  124  A    between atoms: _286  and  _287
REMARK  125  A    between atoms: _289  and  _291
REMARK  126  A    between atoms: _291  and  _292
REMARK  127  A    between atoms: _291  and  _294
REMARK  128  A    between atoms: _294  and  _295
REMARK  129  A    between atoms: _298  and  _300
REMARK  130  A    between atoms: _300  and  _301
REMARK  131  A    between atoms: _303  and  _305
REMARK  132  A    between atoms: _305  and  _306
REMARK  133  A    between atoms: _308  and  _310
REMARK  134  A    between atoms: _310  and  _311
REMARK  135  A    between atoms: _310  and  _313
REMARK  136  A    between atoms: _313  and  _314
REMARK  137  A    between atoms: _317  and  _319
REMARK  138  A    between atoms: _319  and  _320
REMARK  139  A    between atoms: _319  and  _322
REMARK  140  A    between atoms: _322  and  _323
REMARK  141  A    between atoms: _325  and  _327
REMARK  142  A    between atoms: _327  and  _328
REMARK  143  A    between atoms: _327  and  _330
REMARK  144  A    between atoms: _330  and  _331
REMARK  145  A    between atoms: _336  and  _338
REMARK  146  A    between atoms: _338  and  _339
REMARK  147  A    between atoms: _338  and  _341
REMARK  148  A    between atoms: _341  and  _342
REMARK  149  A    between atoms: _345  and  _347
REMARK  150  A    between atoms: _347  and  _348
REMARK  151  A    between atoms: _351  and  _353
REMARK  152  A    between atoms: _353  and  _354
REMARK  153  A    between atoms: _353  and  _356
REMARK  154  A    between atoms: _356  and  _357
REMARK  155  A    between atoms: _359  and  _361
REMARK  156  A    between atoms: _361  and  _362
REMARK  157  A    between atoms: _361  and  _364
REMARK  158  A    between atoms: _364  and  _365
REMARK  159  A    between atoms: _367  and  _369
REMARK  160  A    between atoms: _369  and  _370
REMARK  161  A    between atoms: _369  and  _372
REMARK  162  A    between atoms: _372  and  _373
REMARK  163  A    between atoms: _373  and  _374
REMARK  164  A    between atoms: _379  and  _381
REMARK  165  A    between atoms: _381  and  _382
REMARK  166  A    between atoms: _381  and  _384
REMARK  167  A    between atoms: _384  and  _385
REMARK  168  A    between atoms: _388  and  _390
REMARK  169  A    between atoms: _390  and  _391
REMARK  170  A    between atoms: _390  and  _393
REMARK  171  A    between atoms: _393  and  _394
REMARK  172  A    between atoms: _400  and  _402
REMARK  173  A    between atoms: _402  and  _403
REMARK  174  A    between atoms: _402  and  _405
REMARK  175  A    between atoms: _405  and  _406
REMARK  176  A    between atoms: _409  and  _411
REMARK  177  A    between atoms: _411  and  _412
REMARK  178  A    between atoms: _411  and  _414
REMARK  179  A    between atoms: _414  and  _415
REMARK  180  A    between atoms: _418  and  _420
REMARK  181  A    between atoms: _420  and  _421
REMARK  182  A    between atoms: _420  and  _423
REMARK  183  A    between atoms: _423  and  _424
REMARK  184  A    between atoms: _424  and  _425
REMARK  185  A    between atoms: _428  and  _430
REMARK  186  A    between atoms: _430  and  _431
REMARK  187  A    between atoms: _430  and  _433
REMARK  188  A    between atoms: _433  and  _434
REMARK  189  A    between atoms: _439  and  _440
REMARK  190  A    between atoms: _442  and  _444
REMARK  191  A    between atoms: _444  and  _445
REMARK  192  A    between atoms: _444  and  _447
REMARK  193  A    between atoms: _447  and  _448
REMARK  194  A    between atoms: _451  and  _453
REMARK  195  A    between atoms: _453  and  _454
REMARK  196  A    between atoms: _453  and  _456
REMARK  197  A    between atoms: _456  and  _457
REMARK  198  A    between atoms: _457  and  _458
REMARK  199  A    between atoms: _463  and  _465
REMARK  200  A    between atoms: _465  and  _466
REMARK  201  A    between atoms: _465  and  _468
REMARK  202  A    between atoms: _468  and  _469
REMARK  203  A    between atoms: _474  and  _475
REMARK  204  A    between atoms: _477  and  _479
REMARK  205  A    between atoms: _479  and  _480
REMARK  206  A    between atoms: _479  and  _482
REMARK  207  A    between atoms: _482  and  _483
REMARK  208  A    between atoms: _486  and  _488
REMARK  209  A    between atoms: _488  and  _489
REMARK  210  A    between atoms: _488  and  _491
REMARK  211  A    between atoms: _491  and  _492
REMARK  212  A    between atoms: _497  and  _498
REMARK  213  A    between atoms: _500  and  _502
REMARK  214  A    between atoms: _502  and  _503
REMARK  215  A    between atoms: _502  and  _505
REMARK  216  A    between atoms: _505  and  _506
REMARK  217  A    between atoms: _511  and  _512
REMARK  218  A    between atoms: _515  and  _516
REMARK  219  A    between atoms: _521  and  _523
REMARK  220  A    between atoms: _523  and  _524
REMARK  221  A    between atoms: _523  and  _526
REMARK  222  A    between atoms: _526  and  _527
REMARK  223  A    between atoms: _530  and  _532
REMARK  224  A    between atoms: _532  and  _533
REMARK  225  A    between atoms: _532  and  _535
REMARK  226  A    between atoms: _535  and  _536
REMARK                            x       y       z     vdW  Elec       q    Type
REMARK                         _______ _______ _______ _____ _____    ______ ____
ROOT
ATOM      1  C   GLN A   1      31.625  22.175  38.479  0.00  0.00    +0.238 C 
ATOM      2  N   TYR A   2      32.768  21.501  38.440  0.00  0.00    -0.298 N 
ATOM      3  H   TYR A   2      33.508  21.699  39.143  0.00  0.00    +0.150 HD
ATOM      4  O   GLN A   1      30.638  21.792  37.866  0.00  0.00    -0.274 OA
ENDROOT
BRANCH   1   5
ATOM      5  CA  GLN A   1      31.548  23.428  39.393  0.00  0.00    +0.145 C 
BRANCH   5   6
ATOM      6  N   GLN A   1      32.737  23.677  40.186  0.00  0.00    -0.238 NA
ATOM      7  H   GLN A   1      33.507  24.227  39.755  0.00  0.00    +0.142 HD
ENDBRANCH   5   6
BRANCH   5   8
ATOM      8  CB  GLN A   1      31.261  24.671  38.561  0.00  0.00    +0.036 C 
BRANCH   8   9
ATOM      9  CG  GLN A   1      29.799  25.121  38.610  0.00  0.00    +0.087 C 
BRANCH   9  10
ATOM     10  CD  GLN A   1      29.437  26.052  37.472  0.00  0.00    +0.219 C 
ATOM     11  OE1 GLN A   1      28.284  26.441  37.335  0.00  0.00    -0.275 OA
ATOM     12  NE2 GLN A   1      30.417  26.400  36.636  0.00  0.00    -0.329 N 
ATOM     13 HE21 GLN A   1      31.383  26.046  36.791  0.00  0.00    +0.145 HD
ATOM     14 HE22 GLN A   1      30.215  27.025  35.830  0.00  0.00    +0.145 HD
ENDBRANCH   9  10
ENDBRANCH   8   9
ENDBRANCH   5   8
ENDBRANCH   1   5
BRANCH   2  15
ATOM     15  CA  TYR A   2      32.996  20.473  37.406  0.00  0.00    +0.141 C 
BRANCH  15  16
ATOM     16  C   TYR A   2      32.177  19.212  37.594  0.00  0.00    +0.227 C 
ATOM     17  O   TYR A   2      31.825  18.541  36.619  0.00  0.00    -0.286 OA
ENDBRANCH  15  16
BRANCH  15  18
ATOM     18  CB  TYR A   2      34.480  20.141  37.280  0.00  0.00    +0.054 C 
BRANCH  18  19
ATOM     19  CG  TYR A   2      35.308  21.229  36.633  0.00  0.00    -0.020 A 
ATOM     20  CD2 TYR A   2      36.679  21.259  36.812  0.00  0.00    -0.001 A 
ATOM     21  CE2 TYR A   2      37.456  22.225  36.226  0.00  0.00    +0.036 A 
ATOM     22  CZ  TYR A   2      36.880  23.186  35.430  0.00  0.00    +0.134 A 
ATOM     23  CE1 TYR A   2      35.505  23.187  35.209  0.00  0.00    +0.036 A 
ATOM     24  CD1 TYR A   2      34.725  22.204  35.818  0.00  0.00    -0.001 A 
BRANCH  22  25
ATOM     25  OH  TYR A   2      37.697  24.138  34.870  0.00  0.00    -0.506 OA
ATOM     26  HH  TYR A   2      38.156  24.641  35.588  0.00  0.00    +0.292 HD
ENDBRANCH  22  25
ENDBRANCH  18  19
ENDBRANCH  15  18
ENDBRANCH   2  15
TORSDOF 10
REMARK  Name = ../refined-set-2016/3aaq/3aaq_pocket.pdb
REMARK  226 active torsions:
REMARK  status: ('A' for Active; 'I' for Inactive)
REMARK    1  A    between atoms: _1  and  _3
REMARK    2  A    between atoms: _3  and  _4
REMARK    3  A    between atoms: _3  and  _6
REMARK    4  A    between atoms: _6  and  _7
REMARK    5  A    between atoms: _10  and  _12
REMARK    6  A    between atoms: _12  and  _13
REMARK    7  A    between atoms: _16  and  _18
REMARK    8  A    between atoms: _18  and  _19
REMARK    9  A    between atoms: _21  and  _23
REMARK   10  A    between atoms: _23  and  _24
REMARK   11  A    between atoms: _23  and  _26
REMARK   12  A    between atoms: _26  and  _27
REMARK   13  A    between atoms: _29  and  _31
REMARK   14  A    between atoms: _31  and  _32
REMARK   15  A    between atoms: _31  and  _34
REMARK   16  A    between atoms: _34  and  _35
REMARK   17  A    between atoms: _38  and  _40
REMARK   18  A    between atoms: _40  and  _41
REMARK   19  A    between atoms: _43  and  _45
REMARK   20  A    between atoms: _45  and  _46
REMARK   21  A    between atoms: _45  and  _48
REMARK   22  A    between atoms: _48  and  _49
REMARK   23  A    between atoms: _51  and  _53
REMARK   24  A    between atoms: _53  and  _54
REMARK   25  A    between atoms: _53  and  _56
REMARK   26  A    between atoms: _56  and  _57
REMARK   27  A    between atoms: _57  and  _58
REMARK   28  A    between atoms: _58  and  _59
REMARK   29  A    between atoms: _68  and  _70
REMARK   30  A    between atoms: _70  and  _71
REMARK   31  A    between atoms: _70  and  _73
REMARK   32  A    between atoms: _73  and  _74
REMARK   33  A    between atoms: _74  and  _75
REMARK   34  A    between atoms: _75  and  _76
REMARK   35  A    between atoms: _76  and  _77
REMARK   36  A    between atoms: _81  and  _83
REMARK   37  A    between atoms: _83  and  _84
REMARK   38  A    between atoms: _83  and  _86
REMARK   39  A    between atoms: _86  and  _87
REMARK   40  A    between atoms: _90  and  _92
REMARK   41  A    between atoms: _92  and  _93
REMARK   42  A    between atoms: _92  and  _95
REMARK   43  A    between atoms: _95  and  _96
REMARK   44  A    between atoms: _96  and  _97
REMARK   45  A    between atoms: _97  and  _98
REMARK   46  A    between atoms: _98  and  _99
REMARK   47  A    between atoms: _104  and  _105
REMARK   48  A    between atoms: _110  and  _112
REMARK   49  A    between atoms: _112  and  _113
REMARK   50  A    between atoms: _115  and  _117
REMARK   51  A    between atoms: _117  and  _118
REMARK   52  A    between atoms: _117  and  _120
REMARK   53  A    between atoms: _120  and  _121
REMARK   54  A    between atoms: _127  and  _129
REMARK   55  A    between atoms: _129  and  _130
REMARK   56  A    between atoms: _129  and  _132
REMARK   57  A    between atoms: _132  and  _133
REMARK   58  A    between atoms: _136  and  _138
REMARK   59  A    between atoms: _138  and  _139
REMARK   60  A    between atoms: _142  and  _144
REMARK   61  A    between atoms: _144  and  _145
REMARK   62  A    between atoms: _147  and  _149
REMARK   63  A    between atoms: _149  and  _150
REMARK   64  A    between atoms: _149  and  _152
REMARK   65  A    between atoms: _152  and  _153
REMARK   66  A    between atoms: _153  and  _154
REMARK   67  A    between atoms: _156  and  _158
REMARK   68  A    between atoms: _158  and  _159
REMARK   69  A    between atoms: _158  and  _161
REMARK   70  A    between atoms: _161  and  _162
REMARK   71  A    between atoms: _162  and  _163
REMARK   72  A    between atoms: _163  and  _164
REMARK   73  A    between atoms: _173  and  _175
REMARK   74  A    between atoms: _175  and  _176
REMARK   75  A    between atoms: _175  and  _178
REMARK   76  A    between atoms: _178  and  _179
REMARK   77  A    between atoms: _179  and  _180
REMARK   78  A    between atoms: _183  and  _185
REMARK   79  A    between atoms: _185  and  _186
REMARK   80  A    between atoms: _185  and  _188
REMARK   81  A    between atoms: _188  and  _189
REMARK   82  A    between atoms: _192  and  _194
REMARK   83  A    between atoms: _194  and  _195
REMARK   84  A    between atoms: _194  and  _197
REMARK   85  A    between atoms: _197  and  _198
REMARK   86  A    between atoms: _198  and  _199
REMARK   87  A    between atoms: _201  and  _203
REMARK   88  A    between atoms: _203  and  _204
REMARK   89  A    between atoms: _206  and  _208
REMARK   90  A    between atoms: _208  and  _209
REMARK   91  A    between atoms: _211  and  _213
REMARK   92  A    between atoms: _213  and  _214
REMARK   93  A    between atoms: _217  and  _219
REMARK   94  A    between atoms: _219  and  _220
REMARK   95  A    between atoms: _219  and  _222
REMARK   96  A    between atoms: _222  and  _223
REMARK   97  A    between atoms: _225  and  _227
REMARK   98  A    between atoms: _227  and  _228
REMARK   99  A    between atoms: _227  and  _230
REMARK  100  A    between atoms: _233  and  _235
REMARK  101  A    between atoms: _235  and  _236
REMARK  102  A    between atoms: _235  and  _238
REMARK  103  A    between atoms: _238  and  _239
REMARK  104  A    between atoms: _239  and  _240
REMARK  105  A    between atoms: _245  and  _247
REMARK  106  A    between atoms: _247  and  _248
REMARK  107  A    between atoms: _250  and  _252
REMARK  108  A    between atoms: _252  and  _253
REMARK  109  A    between atoms: _252  and  _255
REMARK  110  A    between atoms: _255  and  _256
REMARK  111  A    between atoms: _256  and  _257
REMARK  112  A    between atoms: _262  and  _264
REMARK  113  A    between atoms: _264  and  _265
REMARK  114  A    between atoms: _264  and  _267
REMARK  115  A    between atoms: _267  and  _268
REMARK  116  A    between atoms: _271  and  _273
REMARK  117  A    between atoms: _273  and  _274
REMARK  118  A    between atoms: _273  and  _276
REMARK  119  A    between atoms: _276  and  _277
REMARK  120  A    between atoms: _277  and  _278
REMARK  121  A    between atoms: _281  and  _283
REMARK  122  A    between atoms: _283  and  _284
REMARK  123  A    between atoms: _283  and  _286
REMARK  124  A    between atoms: _286  and  _287
REMARK  125  A    between atoms: _289  and  _291
REMARK  126  A    between atoms: _291  and  _292
REMARK  127  A    between atoms: _291  and  _294
REMARK  128  A    between atoms: _294  and  _295
REMARK  129  A    between atoms: _298  and  _300
REMARK  130  A    between atoms: _300  and  _301
REMARK  131  A    between atoms: _303  and  _305
REMARK  132  A    between atoms: _305  and  _306
REMARK  133  A    between atoms: _308  and  _310
REMARK  134  A    between atoms: _310  and  _311
REMARK  135  A    between atoms: _310  and  _313
REMARK  136  A    between atoms: _313  and  _314
REMARK  137  A    between atoms: _317  and  _319
REMARK  138  A    between atoms: _319  and  _320
REMARK  139  A    between atoms: _319  and  _322
REMARK  140  A    between atoms: _322  and  _323
REMARK  141  A    between atoms: _325  and  _327
REMARK  142  A    between atoms: _327  and  _328
REMARK  143  A    between atoms: _327  and  _330
REMARK  144  A    between atoms: _330  and  _331
REMARK  145  A    between atoms: _336  and  _338
REMARK  146  A    between atoms: _338  and  _339
REMARK  147  A    between atoms: _338  and  _341
REMARK  148  A    between atoms: _341  and  _342
REMARK  149  A    between atoms: _345  and  _347
REMARK  150  A    between atoms: _347  and  _348
REMARK  151  A    between atoms: _351  and  _353
REMARK  152  A    between atoms: _353  and  _354
REMARK  153  A    between atoms: _353  and  _356
REMARK  154  A    between atoms: _356  and  _357
REMARK  155  A    between atoms: _359  and  _361
REMARK  156  A    between atoms: _361  and  _362
REMARK  157  A    between atoms: _361  and  _364
REMARK  158  A    between atoms: _364  and  _365
REMARK  159  A    between atoms: _367  and  _369
REMARK  160  A    between atoms: _369  and  _370
REMARK  161  A    between atoms: _369  and  _372
REMARK  162  A    between atoms: _372  and  _373
REMARK  163  A    between atoms: _373  and  _374
REMARK  164  A    between atoms: _379  and  _381
REMARK  165  A    between atoms: _381  and  _382
REMARK  166  A    between atoms: _381  and  _384
REMARK  167  A    between atoms: _384  and  _385
REMARK  168  A    between atoms: _388  and  _390
REMARK  169  A    between atoms: _390  and  _391
REMARK  170  A    between atoms: _390  and  _393
REMARK  171  A    between atoms: _393  and  _394
REMARK  172  A    between atoms: _400  and  _402
REMARK  173  A    between atoms: _402  and  _403
REMARK  174  A    between atoms: _402  and  _405
REMARK  175  A    between atoms: _405  and  _406
REMARK  176  A    between atoms: _409  and  _411
REMARK  177  A    between atoms: _411  and  _412
REMARK  178  A    between atoms: _411  and  _414
REMARK  179  A    between atoms: _414  and  _415
REMARK  180  A    between atoms: _418  and  _420
REMARK  181  A    between atoms: _420  and  _421
REMARK  182  A    between atoms: _420  and  _423
REMARK  183  A    between atoms: _423  and  _424
REMARK  184  A    between atoms: _424  and  _425
REMARK  185  A    between atoms: _428  and  _430
REMARK  186  A    between atoms: _430  and  _431
REMARK  187  A    between atoms: _430  and  _433
REMARK  188  A    between atoms: _433  and  _434
REMARK  189  A    between atoms: _439  and  _440
REMARK  190  A    between atoms: _442  and  _444
REMARK  191  A    between atoms: _444  and  _445
REMARK  192  A    between atoms: _444  and  _447
REMARK  193  A    between atoms: _447  and  _448
REMARK  194  A    between atoms: _451  and  _453
REMARK  195  A    between atoms: _453  and  _454
REMARK  196  A    between atoms: _453  and  _456
REMARK  197  A    between atoms: _456  and  _457
REMARK  198  A    between atoms: _457  and  _458
REMARK  199  A    between atoms: _463  and  _465
REMARK  200  A    between atoms: _465  and  _466
REMARK  201  A    between atoms: _465  and  _468
REMARK  202  A    between atoms: _468  and  _469
REMARK  203  A    between atoms: _474  and  _475
REMARK  204  A    between atoms: _477  and  _479
REMARK  205  A    between atoms: _479  and  _480
REMARK  206  A    between atoms: _479  and  _482
REMARK  207  A    between atoms: _482  and  _483
REMARK  208  A    between atoms: _486  and  _488
REMARK  209  A    between atoms: _488  and  _489
REMARK  210  A    between atoms: _488  and  _491
REMARK  211  A    between atoms: _491  and  _492
REMARK  212  A    between atoms: _497  and  _498
REMARK  213  A    between atoms: _500  and  _502
REMARK  214  A    between atoms: _502  and  _503
REMARK  215  A    between atoms: _502  and  _505
REMARK  216  A    between atoms: _505  and  _506
REMARK  217  A    between atoms: _511  and  _512
REMARK  218  A    between atoms: _515  and  _516
REMARK  219  A    between atoms: _521  and  _523
REMARK  220  A    between atoms: _523  and  _524
REMARK  221  A    between atoms: _523  and  _526
REMARK  222  A    between atoms: _526  and  _527
REMARK  223  A    between atoms: _530  and  _532
REMARK  224  A    between atoms: _532  and  _533
REMARK  225  A    between atoms: _532  and  _535
REMARK  226  A    between atoms: _535  and  _536
REMARK                            x       y       z     vdW  Elec       q    Type
REMARK                         _______ _______ _______ _____ _____    ______ ____
ROOT
ATOM      1  CA  LEU A   1      28.709  20.585  34.882  0.00  0.00    +0.133 C 
ENDROOT
BRANCH   1   2
ATOM      2  N   LEU A   1      28.668  20.353  36.321  0.00  0.00    -0.239 NA
ATOM      3  H   LEU A   1      29.464  20.682  36.905  0.00  0.00    +0.142 HD
ENDBRANCH   1   2
BRANCH   1   4
ATOM      4  C   LEU A   1      28.785  19.303  34.051  0.00  0.00    +0.224 C 
ATOM      5  O   LEU A   1      28.078  19.167  33.049  0.00  0.00    -0.287 OA
ENDBRANCH   1   4
BRANCH   1   6
ATOM      6  CB  LEU A   1      29.853  21.533  34.503  0.00  0.00    +0.025 C 
BRANCH   6   7
ATOM      7  CG  LEU A   1      29.756  23.002  34.942  0.00  0.00    +0.002 C 
ATOM      8  CD2 LEU A   1      28.423  23.622  34.486  0.00  0.00    +0.000 C 
ATOM      9  CD1 LEU A   1      30.947  23.848  34.451  0.00  0.00    +0.000 C 
ENDBRANCH   6   7
ENDBRANCH   1   6
TORSDOF 4
REMARK  Name = ../refined-set-2016/3aaq/3aaq_pocket.pdb
REMARK  226 active torsions:
REMARK  status: ('A' for Active; 'I' for Inactive)
REMARK    1  A    between atoms: _1  and  _3
REMARK    2  A    between atoms: _3  and  _4
REMARK    3  A    between atoms: _3  and  _6
REMARK    4  A    between atoms: _6  and  _7
REMARK    5  A    between atoms: _10  and  _12
REMARK    6  A    between atoms: _12  and  _13
REMARK    7  A    between atoms: _16  and  _18
REMARK    8  A    between atoms: _18  and  _19
REMARK    9  A    between atoms: _21  and  _23
REMARK   10  A    between atoms: _23  and  _24
REMARK   11  A    between atoms: _23  and  _26
REMARK   12  A    between atoms: _26  and  _27
REMARK   13  A    between atoms: _29  and  _31
REMARK   14  A    between atoms: _31  and  _32
REMARK   15  A    between atoms: _31  and  _34
REMARK   16  A    between atoms: _34  and  _35
REMARK   17  A    between atoms: _38  and  _40
REMARK   18  A    between atoms: _40  and  _41
REMARK   19  A    between atoms: _43  and  _45
REMARK   20  A    between atoms: _45  and  _46
REMARK   21  A    between atoms: _45  and  _48
REMARK   22  A    between atoms: _48  and  _49
REMARK   23  A    between atoms: _51  and  _53
REMARK   24  A    between atoms: _53  and  _54
REMARK   25  A    between atoms: _53  and  _56
REMARK   26  A    between atoms: _56  and  _57
REMARK   27  A    between atoms: _57  and  _58
REMARK   28  A    between atoms: _58  and  _59
REMARK   29  A    between atoms: _68  and  _70
REMARK   30  A    between atoms: _70  and  _71
REMARK   31  A    between atoms: _70  and  _73
REMARK   32  A    between atoms: _73  and  _74
REMARK   33  A    between atoms: _74  and  _75
REMARK   34  A    between atoms: _75  and  _76
REMARK   35  A    between atoms: _76  and  _77
REMARK   36  A    between atoms: _81  and  _83
REMARK   37  A    between atoms: _83  and  _84
REMARK   38  A    between atoms: _83  and  _86
REMARK   39  A    between atoms: _86  and  _87
REMARK   40  A    between atoms: _90  and  _92
REMARK   41  A    between atoms: _92  and  _93
REMARK   42  A    between atoms: _92  and  _95
REMARK   43  A    between atoms: _95  and  _96
REMARK   44  A    between atoms: _96  and  _97
REMARK   45  A    between atoms: _97  and  _98
REMARK   46  A    between atoms: _98  and  _99
REMARK   47  A    between atoms: _104  and  _105
REMARK   48  A    between atoms: _110  and  _112
REMARK   49  A    between atoms: _112  and  _113
REMARK   50  A    between atoms: _115  and  _117
REMARK   51  A    between atoms: _117  and  _118
REMARK   52  A    between atoms: _117  and  _120
REMARK   53  A    between atoms: _120  and  _121
REMARK   54  A    between atoms: _127  and  _129
REMARK   55  A    between atoms: _129  and  _130
REMARK   56  A    between atoms: _129  and  _132
REMARK   57  A    between atoms: _132  and  _133
REMARK   58  A    between atoms: _136  and  _138
REMARK   59  A    between atoms: _138  and  _139
REMARK   60  A    between atoms: _142  and  _144
REMARK   61  A    between atoms: _144  and  _145
REMARK   62  A    between atoms: _147  and  _149
REMARK   63  A    between atoms: _149  and  _150
REMARK   64  A    between atoms: _149  and  _152
REMARK   65  A    between atoms: _152  and  _153
REMARK   66  A    between atoms: _153  and  _154
REMARK   67  A    between atoms: _156  and  _158
REMARK   68  A    between atoms: _158  and  _159
REMARK   69  A    between atoms: _158  and  _161
REMARK   70  A    between atoms: _161  and  _162
REMARK   71  A    between atoms: _162  and  _163
REMARK   72  A    between atoms: _163  and  _164
REMARK   73  A    between atoms: _173  and  _175
REMARK   74  A    between atoms: _175  and  _176
REMARK   75  A    between atoms: _175  and  _178
REMARK   76  A    between atoms: _178  and  _179
REMARK   77  A    between atoms: _179  and  _180
REMARK   78  A    between atoms: _183  and  _185
REMARK   79  A    between atoms: _185  and  _186
REMARK   80  A    between atoms: _185  and  _188
REMARK   81  A    between atoms: _188  and  _189
REMARK   82  A    between atoms: _192  and  _194
REMARK   83  A    between atoms: _194  and  _195
REMARK   84  A    between atoms: _194  and  _197
REMARK   85  A    between atoms: _197  and  _198
REMARK   86  A    between atoms: _198  and  _199
REMARK   87  A    between atoms: _201  and  _203
REMARK   88  A    between atoms: _203  and  _204
REMARK   89  A    between atoms: _206  and  _208
REMARK   90  A    between atoms: _208  and  _209
REMARK   91  A    between atoms: _211  and  _213
REMARK   92  A    between atoms: _213  and  _214
REMARK   93  A    between atoms: _217  and  _219
REMARK   94  A    between atoms: _219  and  _220
REMARK   95  A    between atoms: _219  and  _222
REMARK   96  A    between atoms: _222  and  _223
REMARK   97  A    between atoms: _225  and  _227
REMARK   98  A    between atoms: _227  and  _228
REMARK   99  A    between atoms: _227  and  _230
REMARK  100  A    between atoms: _233  and  _235
REMARK  101  A    between atoms: _235  and  _236
REMARK  102  A    between atoms: _235  and  _238
REMARK  103  A    between atoms: _238  and  _239
REMARK  104  A    between atoms: _239  and  _240
REMARK  105  A    between atoms: _245  and  _247
REMARK  106  A    between atoms: _247  and  _248
REMARK  107  A    between atoms: _250  and  _252
REMARK  108  A    between atoms: _252  and  _253
REMARK  109  A    between atoms: _252  and  _255
REMARK  110  A    between atoms: _255  and  _256
REMARK  111  A    between atoms: _256  and  _257
REMARK  112  A    between atoms: _262  and  _264
REMARK  113  A    between atoms: _264  and  _265
REMARK  114  A    between atoms: _264  and  _267
REMARK  115  A    between atoms: _267  and  _268
REMARK  116  A    between atoms: _271  and  _273
REMARK  117  A    between atoms: _273  and  _274
REMARK  118  A    between atoms: _273  and  _276
REMARK  119  A    between atoms: _276  and  _277
REMARK  120  A    between atoms: _277  and  _278
REMARK  121  A    between atoms: _281  and  _283
REMARK  122  A    between atoms: _283  and  _284
REMARK  123  A    between atoms: _283  and  _286
REMARK  124  A    between atoms: _286  and  _287
REMARK  125  A    between atoms: _289  and  _291
REMARK  126  A    between atoms: _291  and  _292
REMARK  127  A    between atoms: _291  and  _294
REMARK  128  A    between atoms: _294  and  _295
REMARK  129  A    between atoms: _298  and  _300
REMARK  130  A    between atoms: _300  and  _301
REMARK  131  A    between atoms: _303  and  _305
REMARK  132  A    between atoms: _305  and  _306
REMARK  133  A    between atoms: _308  and  _310
REMARK  134  A    between atoms: _310  and  _311
REMARK  135  A    between atoms: _310  and  _313
REMARK  136  A    between atoms: _313  and  _314
REMARK  137  A    between atoms: _317  and  _319
REMARK  138  A    between atoms: _319  and  _320
REMARK  139  A    between atoms: _319  and  _322
REMARK  140  A    between atoms: _322  and  _323
REMARK  141  A    between atoms: _325  and  _327
REMARK  142  A    between atoms: _327  and  _328
REMARK  143  A    between atoms: _327  and  _330
REMARK  144  A    between atoms: _330  and  _331
REMARK  145  A    between atoms: _336  and  _338
REMARK  146  A    between atoms: _338  and  _339
REMARK  147  A    between atoms: _338  and  _341
REMARK  148  A    between atoms: _341  and  _342
REMARK  149  A    between atoms: _345  and  _347
REMARK  150  A    between atoms: _347  and  _348
REMARK  151  A    between atoms: _351  and  _353
REMARK  152  A    between atoms: _353  and  _354
REMARK  153  A    between atoms: _353  and  _356
REMARK  154  A    between atoms: _356  and  _357
REMARK  155  A    between atoms: _359  and  _361
REMARK  156  A    between atoms: _361  and  _362
REMARK  157  A    between atoms: _361  and  _364
REMARK  158  A    between atoms: _364  and  _365
REMARK  159  A    between atoms: _367  and  _369
REMARK  160  A    between atoms: _369  and  _370
REMARK  161  A    between atoms: _369  and  _372
REMARK  162  A    between atoms: _372  and  _373
REMARK  163  A    between atoms: _373  and  _374
REMARK  164  A    between atoms: _379  and  _381
REMARK  165  A    between atoms: _381  and  _382
REMARK  166  A    between atoms: _381  and  _384
REMARK  167  A    between atoms: _384  and  _385
REMARK  168  A    between atoms: _388  and  _390
REMARK  169  A    between atoms: _390  and  _391
REMARK  170  A    between atoms: _390  and  _393
REMARK  171  A    between atoms: _393  and  _394
REMARK  172  A    between atoms: _400  and  _402
REMARK  173  A    between atoms: _402  and  _403
REMARK  174  A    between atoms: _402  and  _405
REMARK  175  A    between atoms: _405  and  _406
REMARK  176  A    between atoms: _409  and  _411
REMARK  177  A    between atoms: _411  and  _412
REMARK  178  A    between atoms: _411  and  _414
REMARK  179  A    between atoms: _414  and  _415
REMARK  180  A    between atoms: _418  and  _420
REMARK  181  A    between atoms: _420  and  _421
REMARK  182  A    between atoms: _420  and  _423
REMARK  183  A    between atoms: _423  and  _424
REMARK  184  A    between atoms: _424  and  _425
REMARK  185  A    between atoms: _428  and  _430
REMARK  186  A    between atoms: _430  and  _431
REMARK  187  A    between atoms: _430  and  _433
REMARK  188  A    between atoms: _433  and  _434
REMARK  189  A    between atoms: _439  and  _440
REMARK  190  A    between atoms: _442  and  _444
REMARK  191  A    between atoms: _444  and  _445
REMARK  192  A    between atoms: _444  and  _447
REMARK  193  A    between atoms: _447  and  _448
REMARK  194  A    between atoms: _451  and  _453
REMARK  195  A    between atoms: _453  and  _454
REMARK  196  A    between atoms: _453  and  _456
REMARK  197  A    between atoms: _456  and  _457
REMARK  198  A    between atoms: _457  and  _458
REMARK  199  A    between atoms: _463  and  _465
REMARK  200  A    between atoms: _465  and  _466
REMARK  201  A    between atoms: _465  and  _468
REMARK  202  A    between atoms: _468  and  _469
REMARK  203  A    between atoms: _474  and  _475
REMARK  204  A    between atoms: _477  and  _479
REMARK  205  A    between atoms: _479  and  _480
REMARK  206  A    between atoms: _479  and  _482
REMARK  207  A    between atoms: _482  and  _483
REMARK  208  A    between atoms: _486  and  _488
REMARK  209  A    between atoms: _488  and  _489
REMARK  210  A    between atoms: _488  and  _491
REMARK  211  A    between atoms: _491  and  _492
REMARK  212  A    between atoms: _497  and  _498
REMARK  213  A    between atoms: _500  and  _502
REMARK  214  A    between atoms: _502  and  _503
REMARK  215  A    between atoms: _502  and  _505
REMARK  216  A    between atoms: _505  and  _506
REMARK  217  A    between atoms: _511  and  _512
REMARK  218  A    between atoms: _515  and  _516
REMARK  219  A    between atoms: _521  and  _523
REMARK  220  A    between atoms: _523  and  _524
REMARK  221  A    between atoms: _523  and  _526
REMARK  222  A    between atoms: _526  and  _527
REMARK  223  A    between atoms: _530  and  _532
REMARK  224  A    between atoms: _532  and  _533
REMARK  225  A    between atoms: _532  and  _535
REMARK  226  A    between atoms: _535  and  _536
REMARK                            x       y       z     vdW  Elec       q    Type
REMARK                         _______ _______ _______ _____ _____    ______ ____
ROOT
ATOM      1  C   TYR A   1      24.550  18.353  32.068  0.00  0.00    +0.239 C 
ATOM      2  N   TYR A   2      25.762  18.322  31.516  0.00  0.00    -0.298 N 
ATOM      3  H   TYR A   2      26.596  18.515  32.107  0.00  0.00    +0.150 HD
ATOM      4  O   TYR A   1      23.513  18.185  31.415  0.00  0.00    -0.274 OA
ENDROOT
BRANCH   1   5
ATOM      5  CA  TYR A   1      24.476  18.597  33.580  0.00  0.00    +0.149 C 
BRANCH   5   6
ATOM      6  N   TYR A   1      25.445  17.774  34.302  0.00  0.00    -0.238 NA
ATOM      7  H   TYR A   1      26.252  18.255  34.747  0.00  0.00    +0.142 HD
ENDBRANCH   5   6
BRANCH   5   8
ATOM      8  CB  TYR A   1      24.733  20.081  33.946  0.00  0.00    +0.053 C 
BRANCH   8   9
ATOM      9  CG  TYR A   1      24.384  21.115  32.889  0.00  0.00    -0.020 A 
ATOM     10  CD2 TYR A   1      23.071  21.522  32.689  0.00  0.00    -0.001 A 
ATOM     11  CE2 TYR A   1      22.741  22.483  31.704  0.00  0.00    +0.036 A 
ATOM     12  CZ  TYR A   1      23.750  23.051  30.970  0.00  0.00    +0.134 A 
ATOM     13  CE1 TYR A   1      25.077  22.640  31.143  0.00  0.00    +0.036 A 
ATOM     14  CD1 TYR A   1      25.380  21.698  32.112  0.00  0.00    -0.001 A 
BRANCH  12  15
ATOM     15  OH  TYR A   1      23.470  23.996  30.035  0.00  0.00    -0.506 OA
ATOM     16  HH  TYR A   1      22.497  24.178  30.033  0.00  0.00    +0.292 HD
ENDBRANCH  12  15
ENDBRANCH   8   9
ENDBRANCH   5   8
ENDBRANCH   1   5
BRANCH   2  17
ATOM     17  CA  TYR A   2      25.947  18.019  30.078  0.00  0.00    +0.141 C 
BRANCH  17  18
ATOM     18  C   TYR A   2      25.419  16.627  29.719  0.00  0.00    +0.227 C 
ATOM     19  O   TYR A   2      24.718  16.466  28.739  0.00  0.00    -0.286 OA
ENDBRANCH  17  18
BRANCH  17  20
ATOM     20  CB  TYR A   2      27.407  18.158  29.622  0.00  0.00    +0.054 C 
BRANCH  20  21
ATOM     21  CG  TYR A   2      27.960  19.543  29.698  0.00  0.00    -0.020 A 
ATOM     22  CD2 TYR A   2      29.184  19.772  30.325  0.00  0.00    -0.001 A 
ATOM     23  CE2 TYR A   2      29.719  21.023  30.411  0.00  0.00    +0.036 A 
ATOM     24  CZ  TYR A   2      29.035  22.075  29.877  0.00  0.00    +0.134 A 
ATOM     25  CE1 TYR A   2      27.806  21.892  29.243  0.00  0.00    +0.036 A 
ATOM     26  CD1 TYR A   2      27.289  20.619  29.138  0.00  0.00    -0.001 A 
BRANCH  24  27
ATOM     27  OH  TYR A   2      29.589  23.318  29.989  0.00  0.00    -0.506 OA
ATOM     28  HH  TYR A   2      28.993  23.983  29.562  0.00  0.00    +0.292 HD
ENDBRANCH  24  27
ENDBRANCH  20  21
ENDBRANCH  17  20
ENDBRANCH   2  17
TORSDOF 10
REMARK  Name = ../refined-set-2016/3aaq/3aaq_pocket.pdb
REMARK  226 active torsions:
REMARK  status: ('A' for Active; 'I' for Inactive)
REMARK    1  A    between atoms: _1  and  _3
REMARK    2  A    between atoms: _3  and  _4
REMARK    3  A    between atoms: _3  and  _6
REMARK    4  A    between atoms: _6  and  _7
REMARK    5  A    between atoms: _10  and  _12
REMARK    6  A    between atoms: _12  and  _13
REMARK    7  A    between atoms: _16  and  _18
REMARK    8  A    between atoms: _18  and  _19
REMARK    9  A    between atoms: _21  and  _23
REMARK   10  A    between atoms: _23  and  _24
REMARK   11  A    between atoms: _23  and  _26
REMARK   12  A    between atoms: _26  and  _27
REMARK   13  A    between atoms: _29  and  _31
REMARK   14  A    between atoms: _31  and  _32
REMARK   15  A    between atoms: _31  and  _34
REMARK   16  A    between atoms: _34  and  _35
REMARK   17  A    between atoms: _38  and  _40
REMARK   18  A    between atoms: _40  and  _41
REMARK   19  A    between atoms: _43  and  _45
REMARK   20  A    between atoms: _45  and  _46
REMARK   21  A    between atoms: _45  and  _48
REMARK   22  A    between atoms: _48  and  _49
REMARK   23  A    between atoms: _51  and  _53
REMARK   24  A    between atoms: _53  and  _54
REMARK   25  A    between atoms: _53  and  _56
REMARK   26  A    between atoms: _56  and  _57
REMARK   27  A    between atoms: _57  and  _58
REMARK   28  A    between atoms: _58  and  _59
REMARK   29  A    between atoms: _68  and  _70
REMARK   30  A    between atoms: _70  and  _71
REMARK   31  A    between atoms: _70  and  _73
REMARK   32  A    between atoms: _73  and  _74
REMARK   33  A    between atoms: _74  and  _75
REMARK   34  A    between atoms: _75  and  _76
REMARK   35  A    between atoms: _76  and  _77
REMARK   36  A    between atoms: _81  and  _83
REMARK   37  A    between atoms: _83  and  _84
REMARK   38  A    between atoms: _83  and  _86
REMARK   39  A    between atoms: _86  and  _87
REMARK   40  A    between atoms: _90  and  _92
REMARK   41  A    between atoms: _92  and  _93
REMARK   42  A    between atoms: _92  and  _95
REMARK   43  A    between atoms: _95  and  _96
REMARK   44  A    between atoms: _96  and  _97
REMARK   45  A    between atoms: _97  and  _98
REMARK   46  A    between atoms: _98  and  _99
REMARK   47  A    between atoms: _104  and  _105
REMARK   48  A    between atoms: _110  and  _112
REMARK   49  A    between atoms: _112  and  _113
REMARK   50  A    between atoms: _115  and  _117
REMARK   51  A    between atoms: _117  and  _118
REMARK   52  A    between atoms: _117  and  _120
REMARK   53  A    between atoms: _120  and  _121
REMARK   54  A    between atoms: _127  and  _129
REMARK   55  A    between atoms: _129  and  _130
REMARK   56  A    between atoms: _129  and  _132
REMARK   57  A    between atoms: _132  and  _133
REMARK   58  A    between atoms: _136  and  _138
REMARK   59  A    between atoms: _138  and  _139
REMARK   60  A    between atoms: _142  and  _144
REMARK   61  A    between atoms: _144  and  _145
REMARK   62  A    between atoms: _147  and  _149
REMARK   63  A    between atoms: _149  and  _150
REMARK   64  A    between atoms: _149  and  _152
REMARK   65  A    between atoms: _152  and  _153
REMARK   66  A    between atoms: _153  and  _154
REMARK   67  A    between atoms: _156  and  _158
REMARK   68  A    between atoms: _158  and  _159
REMARK   69  A    between atoms: _158  and  _161
REMARK   70  A    between atoms: _161  and  _162
REMARK   71  A    between atoms: _162  and  _163
REMARK   72  A    between atoms: _163  and  _164
REMARK   73  A    between atoms: _173  and  _175
REMARK   74  A    between atoms: _175  and  _176
REMARK   75  A    between atoms: _175  and  _178
REMARK   76  A    between atoms: _178  and  _179
REMARK   77  A    between atoms: _179  and  _180
REMARK   78  A    between atoms: _183  and  _185
REMARK   79  A    between atoms: _185  and  _186
REMARK   80  A    between atoms: _185  and  _188
REMARK   81  A    between atoms: _188  and  _189
REMARK   82  A    between atoms: _192  and  _194
REMARK   83  A    between atoms: _194  and  _195
REMARK   84  A    between atoms: _194  and  _197
REMARK   85  A    between atoms: _197  and  _198
REMARK   86  A    between atoms: _198  and  _199
REMARK   87  A    between atoms: _201  and  _203
REMARK   88  A    between atoms: _203  and  _204
REMARK   89  A    between atoms: _206  and  _208
REMARK   90  A    between atoms: _208  and  _209
REMARK   91  A    between atoms: _211  and  _213
REMARK   92  A    between atoms: _213  and  _214
REMARK   93  A    between atoms: _217  and  _219
REMARK   94  A    between atoms: _219  and  _220
REMARK   95  A    between atoms: _219  and  _222
REMARK   96  A    between atoms: _222  and  _223
REMARK   97  A    between atoms: _225  and  _227
REMARK   98  A    between atoms: _227  and  _228
REMARK   99  A    between atoms: _227  and  _230
REMARK  100  A    between atoms: _233  and  _235
REMARK  101  A    between atoms: _235  and  _236
REMARK  102  A    between atoms: _235  and  _238
REMARK  103  A    between atoms: _238  and  _239
REMARK  104  A    between atoms: _239  and  _240
REMARK  105  A    between atoms: _245  and  _247
REMARK  106  A    between atoms: _247  and  _248
REMARK  107  A    between atoms: _250  and  _252
REMARK  108  A    between atoms: _252  and  _253
REMARK  109  A    between atoms: _252  and  _255
REMARK  110  A    between atoms: _255  and  _256
REMARK  111  A    between atoms: _256  and  _257
REMARK  112  A    between atoms: _262  and  _264
REMARK  113  A    between atoms: _264  and  _265
REMARK  114  A    between atoms: _264  and  _267
REMARK  115  A    between atoms: _267  and  _268
REMARK  116  A    between atoms: _271  and  _273
REMARK  117  A    between atoms: _273  and  _274
REMARK  118  A    between atoms: _273  and  _276
REMARK  119  A    between atoms: _276  and  _277
REMARK  120  A    between atoms: _277  and  _278
REMARK  121  A    between atoms: _281  and  _283
REMARK  122  A    between atoms: _283  and  _284
REMARK  123  A    between atoms: _283  and  _286
REMARK  124  A    between atoms: _286  and  _287
REMARK  125  A    between atoms: _289  and  _291
REMARK  126  A    between atoms: _291  and  _292
REMARK  127  A    between atoms: _291  and  _294
REMARK  128  A    between atoms: _294  and  _295
REMARK  129  A    between atoms: _298  and  _300
REMARK  130  A    between atoms: _300  and  _301
REMARK  131  A    between atoms: _303  and  _305
REMARK  132  A    between atoms: _305  and  _306
REMARK  133  A    between atoms: _308  and  _310
REMARK  134  A    between atoms: _310  and  _311
REMARK  135  A    between atoms: _310  and  _313
REMARK  136  A    between atoms: _313  and  _314
REMARK  137  A    between atoms: _317  and  _319
REMARK  138  A    between atoms: _319  and  _320
REMARK  139  A    between atoms: _319  and  _322
REMARK  140  A    between atoms: _322  and  _323
REMARK  141  A    between atoms: _325  and  _327
REMARK  142  A    between atoms: _327  and  _328
REMARK  143  A    between atoms: _327  and  _330
REMARK  144  A    between atoms: _330  and  _331
REMARK  145  A    between atoms: _336  and  _338
REMARK  146  A    between atoms: _338  and  _339
REMARK  147  A    between atoms: _338  and  _341
REMARK  148  A    between atoms: _341  and  _342
REMARK  149  A    between atoms: _345  and  _347
REMARK  150  A    between atoms: _347  and  _348
REMARK  151  A    between atoms: _351  and  _353
REMARK  152  A    between atoms: _353  and  _354
REMARK  153  A    between atoms: _353  and  _356
REMARK  154  A    between atoms: _356  and  _357
REMARK  155  A    between atoms: _359  and  _361
REMARK  156  A    between atoms: _361  and  _362
REMARK  157  A    between atoms: _361  and  _364
REMARK  158  A    between atoms: _364  and  _365
REMARK  159  A    between atoms: _367  and  _369
REMARK  160  A    between atoms: _369  and  _370
REMARK  161  A    between atoms: _369  and  _372
REMARK  162  A    between atoms: _372  and  _373
REMARK  163  A    between atoms: _373  and  _374
REMARK  164  A    between atoms: _379  and  _381
REMARK  165  A    between atoms: _381  and  _382
REMARK  166  A    between atoms: _381  and  _384
REMARK  167  A    between atoms: _384  and  _385
REMARK  168  A    between atoms: _388  and  _390
REMARK  169  A    between atoms: _390  and  _391
REMARK  170  A    between atoms: _390  and  _393
REMARK  171  A    between atoms: _393  and  _394
REMARK  172  A    between atoms: _400  and  _402
REMARK  173  A    between atoms: _402  and  _403
REMARK  174  A    between atoms: _402  and  _405
REMARK  175  A    between atoms: _405  and  _406
REMARK  176  A    between atoms: _409  and  _411
REMARK  177  A    between atoms: _411  and  _412
REMARK  178  A    between atoms: _411  and  _414
REMARK  179  A    between atoms: _414  and  _415
REMARK  180  A    between atoms: _418  and  _420
REMARK  181  A    between atoms: _420  and  _421
REMARK  182  A    between atoms: _420  and  _423
REMARK  183  A    between atoms: _423  and  _424
REMARK  184  A    between atoms: _424  and  _425
REMARK  185  A    between atoms: _428  and  _430
REMARK  186  A    between atoms: _430  and  _431
REMARK  187  A    between atoms: _430  and  _433
REMARK  188  A    between atoms: _433  and  _434
REMARK  189  A    between atoms: _439  and  _440
REMARK  190  A    between atoms: _442  and  _444
REMARK  191  A    between atoms: _444  and  _445
REMARK  192  A    between atoms: _444  and  _447
REMARK  193  A    between atoms: _447  and  _448
REMARK  194  A    between atoms: _451  and  _453
REMARK  195  A    between atoms: _453  and  _454
REMARK  196  A    between atoms: _453  and  _456
REMARK  197  A    between atoms: _456  and  _457
REMARK  198  A    between atoms: _457  and  _458
REMARK  199  A    between atoms: _463  and  _465
REMARK  200  A    between atoms: _465  and  _466
REMARK  201  A    between atoms: _465  and  _468
REMARK  202  A    between atoms: _468  and  _469
REMARK  203  A    between atoms: _474  and  _475
REMARK  204  A    between atoms: _477  and  _479
REMARK  205  A    between atoms: _479  and  _480
REMARK  206  A    between atoms: _479  and  _482
REMARK  207  A    between atoms: _482  and  _483
REMARK  208  A    between atoms: _486  and  _488
REMARK  209  A    between atoms: _488  and  _489
REMARK  210  A    between atoms: _488  and  _491
REMARK  211  A    between atoms: _491  and  _492
REMARK  212  A    between atoms: _497  and  _498
REMARK  213  A    between atoms: _500  and  _502
REMARK  214  A    between atoms: _502  and  _503
REMARK  215  A    between atoms: _502  and  _505
REMARK  216  A    between atoms: _505  and  _506
REMARK  217  A    between atoms: _511  and  _512
REMARK  218  A    between atoms: _515  and  _516
REMARK  219  A    between atoms: _521  and  _523
REMARK  220  A    between atoms: _523  and  _524
REMARK  221  A    between atoms: _523  and  _526
REMARK  222  A    between atoms: _526  and  _527
REMARK  223  A    between atoms: _530  and  _532
REMARK  224  A    between atoms: _532  and  _533
REMARK  225  A    between atoms: _532  and  _535
REMARK  226  A    between atoms: _535  and  _536
REMARK                            x       y       z     vdW  Elec       q    Type
REMARK                         _______ _______ _______ _____ _____    ______ ____
ROOT
ATOM      1  N   PRO A   1      38.308  26.317  22.781  0.00  0.00    -0.212 NA
ATOM      2  CD  PRO A   1      38.559  25.472  23.962  0.00  0.00    +0.089 C 
ATOM      3  CG  PRO A   1      38.467  26.415  25.114  0.00  0.00    +0.021 C 
ATOM      4  CB  PRO A   1      38.532  27.806  24.621  0.00  0.00    +0.027 C 
ATOM      5  CA  PRO A   1      38.230  27.757  23.114  0.00  0.00    +0.137 C 
ENDROOT
BRANCH   5   6
ATOM      6  C   PRO A   1      39.250  28.624  22.349  0.00  0.00    +0.224 C 
ATOM      7  O   PRO A   1      38.911  29.724  21.914  0.00  0.00    -0.287 OA
ENDBRANCH   5   6
TORSDOF 1
REMARK  Name = ../refined-set-2016/3aaq/3aaq_pocket.pdb
REMARK  226 active torsions:
REMARK  status: ('A' for Active; 'I' for Inactive)
REMARK    1  A    between atoms: _1  and  _3
REMARK    2  A    between atoms: _3  and  _4
REMARK    3  A    between atoms: _3  and  _6
REMARK    4  A    between atoms: _6  and  _7
REMARK    5  A    between atoms: _10  and  _12
REMARK    6  A    between atoms: _12  and  _13
REMARK    7  A    between atoms: _16  and  _18
REMARK    8  A    between atoms: _18  and  _19
REMARK    9  A    between atoms: _21  and  _23
REMARK   10  A    between atoms: _23  and  _24
REMARK   11  A    between atoms: _23  and  _26
REMARK   12  A    between atoms: _26  and  _27
REMARK   13  A    between atoms: _29  and  _31
REMARK   14  A    between atoms: _31  and  _32
REMARK   15  A    between atoms: _31  and  _34
REMARK   16  A    between atoms: _34  and  _35
REMARK   17  A    between atoms: _38  and  _40
REMARK   18  A    between atoms: _40  and  _41
REMARK   19  A    between atoms: _43  and  _45
REMARK   20  A    between atoms: _45  and  _46
REMARK   21  A    between atoms: _45  and  _48
REMARK   22  A    between atoms: _48  and  _49
REMARK   23  A    between atoms: _51  and  _53
REMARK   24  A    between atoms: _53  and  _54
REMARK   25  A    between atoms: _53  and  _56
REMARK   26  A    between atoms: _56  and  _57
REMARK   27  A    between atoms: _57  and  _58
REMARK   28  A    between atoms: _58  and  _59
REMARK   29  A    between atoms: _68  and  _70
REMARK   30  A    between atoms: _70  and  _71
REMARK   31  A    between atoms: _70  and  _73
REMARK   32  A    between atoms: _73  and  _74
REMARK   33  A    between atoms: _74  and  _75
REMARK   34  A    between atoms: _75  and  _76
REMARK   35  A    between atoms: _76  and  _77
REMARK   36  A    between atoms: _81  and  _83
REMARK   37  A    between atoms: _83  and  _84
REMARK   38  A    between atoms: _83  and  _86
REMARK   39  A    between atoms: _86  and  _87
REMARK   40  A    between atoms: _90  and  _92
REMARK   41  A    between atoms: _92  and  _93
REMARK   42  A    between atoms: _92  and  _95
REMARK   43  A    between atoms: _95  and  _96
REMARK   44  A    between atoms: _96  and  _97
REMARK   45  A    between atoms: _97  and  _98
REMARK   46  A    between atoms: _98  and  _99
REMARK   47  A    between atoms: _104  and  _105
REMARK   48  A    between atoms: _110  and  _112
REMARK   49  A    between atoms: _112  and  _113
REMARK   50  A    between atoms: _115  and  _117
REMARK   51  A    between atoms: _117  and  _118
REMARK   52  A    between atoms: _117  and  _120
REMARK   53  A    between atoms: _120  and  _121
REMARK   54  A    between atoms: _127  and  _129
REMARK   55  A    between atoms: _129  and  _130
REMARK   56  A    between atoms: _129  and  _132
REMARK   57  A    between atoms: _132  and  _133
REMARK   58  A    between atoms: _136  and  _138
REMARK   59  A    between atoms: _138  and  _139
REMARK   60  A    between atoms: _142  and  _144
REMARK   61  A    between atoms: _144  and  _145
REMARK   62  A    between atoms: _147  and  _149
REMARK   63  A    between atoms: _149  and  _150
REMARK   64  A    between atoms: _149  and  _152
REMARK   65  A    between atoms: _152  and  _153
REMARK   66  A    between atoms: _153  and  _154
REMARK   67  A    between atoms: _156  and  _158
REMARK   68  A    between atoms: _158  and  _159
REMARK   69  A    between atoms: _158  and  _161
REMARK   70  A    between atoms: _161  and  _162
REMARK   71  A    between atoms: _162  and  _163
REMARK   72  A    between atoms: _163  and  _164
REMARK   73  A    between atoms: _173  and  _175
REMARK   74  A    between atoms: _175  and  _176
REMARK   75  A    between atoms: _175  and  _178
REMARK   76  A    between atoms: _178  and  _179
REMARK   77  A    between atoms: _179  and  _180
REMARK   78  A    between atoms: _183  and  _185
REMARK   79  A    between atoms: _185  and  _186
REMARK   80  A    between atoms: _185  and  _188
REMARK   81  A    between atoms: _188  and  _189
REMARK   82  A    between atoms: _192  and  _194
REMARK   83  A    between atoms: _194  and  _195
REMARK   84  A    between atoms: _194  and  _197
REMARK   85  A    between atoms: _197  and  _198
REMARK   86  A    between atoms: _198  and  _199
REMARK   87  A    between atoms: _201  and  _203
REMARK   88  A    between atoms: _203  and  _204
REMARK   89  A    between atoms: _206  and  _208
REMARK   90  A    between atoms: _208  and  _209
REMARK   91  A    between atoms: _211  and  _213
REMARK   92  A    between atoms: _213  and  _214
REMARK   93  A    between atoms: _217  and  _219
REMARK   94  A    between atoms: _219  and  _220
REMARK   95  A    between atoms: _219  and  _222
REMARK   96  A    between atoms: _222  and  _223
REMARK   97  A    between atoms: _225  and  _227
REMARK   98  A    between atoms: _227  and  _228
REMARK   99  A    between atoms: _227  and  _230
REMARK  100  A    between atoms: _233  and  _235
REMARK  101  A    between atoms: _235  and  _236
REMARK  102  A    between atoms: _235  and  _238
REMARK  103  A    between atoms: _238  and  _239
REMARK  104  A    between atoms: _239  and  _240
REMARK  105  A    between atoms: _245  and  _247
REMARK  106  A    between atoms: _247  and  _248
REMARK  107  A    between atoms: _250  and  _252
REMARK  108  A    between atoms: _252  and  _253
REMARK  109  A    between atoms: _252  and  _255
REMARK  110  A    between atoms: _255  and  _256
REMARK  111  A    between atoms: _256  and  _257
REMARK  112  A    between atoms: _262  and  _264
REMARK  113  A    between atoms: _264  and  _265
REMARK  114  A    between atoms: _264  and  _267
REMARK  115  A    between atoms: _267  and  _268
REMARK  116  A    between atoms: _271  and  _273
REMARK  117  A    between atoms: _273  and  _274
REMARK  118  A    between atoms: _273  and  _276
REMARK  119  A    between atoms: _276  and  _277
REMARK  120  A    between atoms: _277  and  _278
REMARK  121  A    between atoms: _281  and  _283
REMARK  122  A    between atoms: _283  and  _284
REMARK  123  A    between atoms: _283  and  _286
REMARK  124  A    between atoms: _286  and  _287
REMARK  125  A    between atoms: _289  and  _291
REMARK  126  A    between atoms: _291  and  _292
REMARK  127  A    between atoms: _291  and  _294
REMARK  128  A    between atoms: _294  and  _295
REMARK  129  A    between atoms: _298  and  _300
REMARK  130  A    between atoms: _300  and  _301
REMARK  131  A    between atoms: _303  and  _305
REMARK  132  A    between atoms: _305  and  _306
REMARK  133  A    between atoms: _308  and  _310
REMARK  134  A    between atoms: _310  and  _311
REMARK  135  A    between atoms: _310  and  _313
REMARK  136  A    between atoms: _313  and  _314
REMARK  137  A    between atoms: _317  and  _319
REMARK  138  A    between atoms: _319  and  _320
REMARK  139  A    between atoms: _319  and  _322
REMARK  140  A    between atoms: _322  and  _323
REMARK  141  A    between atoms: _325  and  _327
REMARK  142  A    between atoms: _327  and  _328
REMARK  143  A    between atoms: _327  and  _330
REMARK  144  A    between atoms: _330  and  _331
REMARK  145  A    between atoms: _336  and  _338
REMARK  146  A    between atoms: _338  and  _339
REMARK  147  A    between atoms: _338  and  _341
REMARK  148  A    between atoms: _341  and  _342
REMARK  149  A    between atoms: _345  and  _347
REMARK  150  A    between atoms: _347  and  _348
REMARK  151  A    between atoms: _351  and  _353
REMARK  152  A    between atoms: _353  and  _354
REMARK  153  A    between atoms: _353  and  _356
REMARK  154  A    between atoms: _356  and  _357
REMARK  155  A    between atoms: _359  and  _361
REMARK  156  A    between atoms: _361  and  _362
REMARK  157  A    between atoms: _361  and  _364
REMARK  158  A    between atoms: _364  and  _365
REMARK  159  A    between atoms: _367  and  _369
REMARK  160  A    between atoms: _369  and  _370
REMARK  161  A    between atoms: _369  and  _372
REMARK  162  A    between atoms: _372  and  _373
REMARK  163  A    between atoms: _373  and  _374
REMARK  164  A    between atoms: _379  and  _381
REMARK  165  A    between atoms: _381  and  _382
REMARK  166  A    between atoms: _381  and  _384
REMARK  167  A    between atoms: _384  and  _385
REMARK  168  A    between atoms: _388  and  _390
REMARK  169  A    between atoms: _390  and  _391
REMARK  170  A    between atoms: _390  and  _393
REMARK  171  A    between atoms: _393  and  _394
REMARK  172  A    between atoms: _400  and  _402
REMARK  173  A    between atoms: _402  and  _403
REMARK  174  A    between atoms: _402  and  _405
REMARK  175  A    between atoms: _405  and  _406
REMARK  176  A    between atoms: _409  and  _411
REMARK  177  A    between atoms: _411  and  _412
REMARK  178  A    between atoms: _411  and  _414
REMARK  179  A    between atoms: _414  and  _415
REMARK  180  A    between atoms: _418  and  _420
REMARK  181  A    between atoms: _420  and  _421
REMARK  182  A    between atoms: _420  and  _423
REMARK  183  A    between atoms: _423  and  _424
REMARK  184  A    between atoms: _424  and  _425
REMARK  185  A    between atoms: _428  and  _430
REMARK  186  A    between atoms: _430  and  _431
REMARK  187  A    between atoms: _430  and  _433
REMARK  188  A    between atoms: _433  and  _434
REMARK  189  A    between atoms: _439  and  _440
REMARK  190  A    between atoms: _442  and  _444
REMARK  191  A    between atoms: _444  and  _445
REMARK  192  A    between atoms: _444  and  _447
REMARK  193  A    between atoms: _447  and  _448
REMARK  194  A    between atoms: _451  and  _453
REMARK  195  A    between atoms: _453  and  _454
REMARK  196  A    between atoms: _453  and  _456
REMARK  197  A    between atoms: _456  and  _457
REMARK  198  A    between atoms: _457  and  _458
REMARK  199  A    between atoms: _463  and  _465
REMARK  200  A    between atoms: _465  and  _466
REMARK  201  A    between atoms: _465  and  _468
REMARK  202  A    between atoms: _468  and  _469
REMARK  203  A    between atoms: _474  and  _475
REMARK  204  A    between atoms: _477  and  _479
REMARK  205  A    between atoms: _479  and  _480
REMARK  206  A    between atoms: _479  and  _482
REMARK  207  A    between atoms: _482  and  _483
REMARK  208  A    between atoms: _486  and  _488
REMARK  209  A    between atoms: _488  and  _489
REMARK  210  A    between atoms: _488  and  _491
REMARK  211  A    between atoms: _491  and  _492
REMARK  212  A    between atoms: _497  and  _498
REMARK  213  A    between atoms: _500  and  _502
REMARK  214  A    between atoms: _502  and  _503
REMARK  215  A    between atoms: _502  and  _505
REMARK  216  A    between atoms: _505  and  _506
REMARK  217  A    between atoms: _511  and  _512
REMARK  218  A    between atoms: _515  and  _516
REMARK  219  A    between atoms: _521  and  _523
REMARK  220  A    between atoms: _523  and  _524
REMARK  221  A    between atoms: _523  and  _526
REMARK  222  A    between atoms: _526  and  _527
REMARK  223  A    between atoms: _530  and  _532
REMARK  224  A    between atoms: _532  and  _533
REMARK  225  A    between atoms: _532  and  _535
REMARK  226  A    between atoms: _535  and  _536
REMARK                            x       y       z     vdW  Elec       q    Type
REMARK                         _______ _______ _______ _____ _____    ______ ____
ROOT
ATOM      1  CA  TRP A   2      28.164  32.797  16.339  0.00  0.00    +0.141 C 
ENDROOT
BRANCH   1   3
ATOM      2  C   ASP A   1      30.588  32.948  16.242  0.00  0.00    +0.239 C 
ATOM      3  N   TRP A   2      29.485  32.789  16.966  0.00  0.00    -0.298 N 
ATOM      4  H   TRP A   2      29.563  32.657  17.995  0.00  0.00    +0.150 HD
ATOM      5  O   ASP A   1      30.570  33.059  15.013  0.00  0.00    -0.274 OA
BRANCH   2   6
ATOM      6  CA  ASP A   1      31.908  33.015  17.027  0.00  0.00    +0.156 C 
BRANCH   6   7
ATOM      7  N   ASP A   1      32.940  32.176  16.455  0.00  0.00    -0.238 NA
ATOM      8  H   ASP A   1      33.183  32.273  15.449  0.00  0.00    +0.142 HD
ENDBRANCH   6   7
BRANCH   6   9
ATOM      9  CB  ASP A   1      32.400  34.466  17.132  0.00  0.00    +0.140 C 
BRANCH   9  10
ATOM     10  CG  ASP A   1      31.538  35.294  18.056  0.00  0.00    +0.367 C 
ATOM     11  OD2 ASP A   1      31.699  35.152  19.288  0.00  0.00    -0.246 OA
ATOM     12  OD1 ASP A   1      30.700  36.077  17.562  0.00  0.00    -0.246 OA
ENDBRANCH   9  10
ENDBRANCH   6   9
ENDBRANCH   2   6
ENDBRANCH   1   3
BRANCH   1  13
ATOM     13  C   TRP A   2      27.888  33.988  15.413  0.00  0.00    +0.227 C 
ATOM     14  O   TRP A   2      27.097  33.862  14.474  0.00  0.00    -0.286 OA
ENDBRANCH   1  13
BRANCH   1  15
ATOM     15  CB  TRP A   2      27.045  32.626  17.371  0.00  0.00    +0.056 C 
BRANCH  15  16
ATOM     16  CG  TRP A   2      26.795  33.806  18.254  0.00  0.00    -0.002 A 
ATOM     17  CD1 TRP A   2      27.316  34.010  19.493  0.00  0.00    +0.068 A 
ATOM     18  NE1 TRP A   2      26.873  35.207  20.012  0.00  0.00    -0.352 N 
ATOM     19  HE1 TRP A   2      27.135  35.597  20.940  0.00  0.00    +0.166 HD
ATOM     20  CE2 TRP A   2      26.032  35.800  19.108  0.00  0.00    +0.056 A 
ATOM     21  CZ2 TRP A   2      25.345  37.024  19.177  0.00  0.00    +0.017 A 
ATOM     22  CH2 TRP A   2      24.578  37.364  18.100  0.00  0.00    +0.001 A 
ATOM     23  CZ3 TRP A   2      24.504  36.538  16.957  0.00  0.00    +0.000 A 
ATOM     24  CE3 TRP A   2      25.180  35.329  16.892  0.00  0.00    +0.001 A 
ATOM     25  CD2 TRP A   2      25.968  34.947  17.974  0.00  0.00    +0.013 A 
ENDBRANCH  15  16
ENDBRANCH   1  15
TORSDOF 8
REMARK  Name = ../refined-set-2016/3aaq/3aaq_pocket.pdb
REMARK  226 active torsions:
REMARK  status: ('A' for Active; 'I' for Inactive)
REMARK    1  A    between atoms: _1  and  _3
REMARK    2  A    between atoms: _3  and  _4
REMARK    3  A    between atoms: _3  and  _6
REMARK    4  A    between atoms: _6  and  _7
REMARK    5  A    between atoms: _10  and  _12
REMARK    6  A    between atoms: _12  and  _13
REMARK    7  A    between atoms: _16  and  _18
REMARK    8  A    between atoms: _18  and  _19
REMARK    9  A    between atoms: _21  and  _23
REMARK   10  A    between atoms: _23  and  _24
REMARK   11  A    between atoms: _23  and  _26
REMARK   12  A    between atoms: _26  and  _27
REMARK   13  A    between atoms: _29  and  _31
REMARK   14  A    between atoms: _31  and  _32
REMARK   15  A    between atoms: _31  and  _34
REMARK   16  A    between atoms: _34  and  _35
REMARK   17  A    between atoms: _38  and  _40
REMARK   18  A    between atoms: _40  and  _41
REMARK   19  A    between atoms: _43  and  _45
REMARK   20  A    between atoms: _45  and  _46
REMARK   21  A    between atoms: _45  and  _48
REMARK   22  A    between atoms: _48  and  _49
REMARK   23  A    between atoms: _51  and  _53
REMARK   24  A    between atoms: _53  and  _54
REMARK   25  A    between atoms: _53  and  _56
REMARK   26  A    between atoms: _56  and  _57
REMARK   27  A    between atoms: _57  and  _58
REMARK   28  A    between atoms: _58  and  _59
REMARK   29  A    between atoms: _68  and  _70
REMARK   30  A    between atoms: _70  and  _71
REMARK   31  A    between atoms: _70  and  _73
REMARK   32  A    between atoms: _73  and  _74
REMARK   33  A    between atoms: _74  and  _75
REMARK   34  A    between atoms: _75  and  _76
REMARK   35  A    between atoms: _76  and  _77
REMARK   36  A    between atoms: _81  and  _83
REMARK   37  A    between atoms: _83  and  _84
REMARK   38  A    between atoms: _83  and  _86
REMARK   39  A    between atoms: _86  and  _87
REMARK   40  A    between atoms: _90  and  _92
REMARK   41  A    between atoms: _92  and  _93
REMARK   42  A    between atoms: _92  and  _95
REMARK   43  A    between atoms: _95  and  _96
REMARK   44  A    between atoms: _96  and  _97
REMARK   45  A    between atoms: _97  and  _98
REMARK   46  A    between atoms: _98  and  _99
REMARK   47  A    between atoms: _104  and  _105
REMARK   48  A    between atoms: _110  and  _112
REMARK   49  A    between atoms: _112  and  _113
REMARK   50  A    between atoms: _115  and  _117
REMARK   51  A    between atoms: _117  and  _118
REMARK   52  A    between atoms: _117  and  _120
REMARK   53  A    between atoms: _120  and  _121
REMARK   54  A    between atoms: _127  and  _129
REMARK   55  A    between atoms: _129  and  _130
REMARK   56  A    between atoms: _129  and  _132
REMARK   57  A    between atoms: _132  and  _133
REMARK   58  A    between atoms: _136  and  _138
REMARK   59  A    between atoms: _138  and  _139
REMARK   60  A    between atoms: _142  and  _144
REMARK   61  A    between atoms: _144  and  _145
REMARK   62  A    between atoms: _147  and  _149
REMARK   63  A    between atoms: _149  and  _150
REMARK   64  A    between atoms: _149  and  _152
REMARK   65  A    between atoms: _152  and  _153
REMARK   66  A    between atoms: _153  and  _154
REMARK   67  A    between atoms: _156  and  _158
REMARK   68  A    between atoms: _158  and  _159
REMARK   69  A    between atoms: _158  and  _161
REMARK   70  A    between atoms: _161  and  _162
REMARK   71  A    between atoms: _162  and  _163
REMARK   72  A    between atoms: _163  and  _164
REMARK   73  A    between atoms: _173  and  _175
REMARK   74  A    between atoms: _175  and  _176
REMARK   75  A    between atoms: _175  and  _178
REMARK   76  A    between atoms: _178  and  _179
REMARK   77  A    between atoms: _179  and  _180
REMARK   78  A    between atoms: _183  and  _185
REMARK   79  A    between atoms: _185  and  _186
REMARK   80  A    between atoms: _185  and  _188
REMARK   81  A    between atoms: _188  and  _189
REMARK   82  A    between atoms: _192  and  _194
REMARK   83  A    between atoms: _194  and  _195
REMARK   84  A    between atoms: _194  and  _197
REMARK   85  A    between atoms: _197  and  _198
REMARK   86  A    between atoms: _198  and  _199
REMARK   87  A    between atoms: _201  and  _203
REMARK   88  A    between atoms: _203  and  _204
REMARK   89  A    between atoms: _206  and  _208
REMARK   90  A    between atoms: _208  and  _209
REMARK   91  A    between atoms: _211  and  _213
REMARK   92  A    between atoms: _213  and  _214
REMARK   93  A    between atoms: _217  and  _219
REMARK   94  A    between atoms: _219  and  _220
REMARK   95  A    between atoms: _219  and  _222
REMARK   96  A    between atoms: _222  and  _223
REMARK   97  A    between atoms: _225  and  _227
REMARK   98  A    between atoms: _227  and  _228
REMARK   99  A    between atoms: _227  and  _230
REMARK  100  A    between atoms: _233  and  _235
REMARK  101  A    between atoms: _235  and  _236
REMARK  102  A    between atoms: _235  and  _238
REMARK  103  A    between atoms: _238  and  _239
REMARK  104  A    between atoms: _239  and  _240
REMARK  105  A    between atoms: _245  and  _247
REMARK  106  A    between atoms: _247  and  _248
REMARK  107  A    between atoms: _250  and  _252
REMARK  108  A    between atoms: _252  and  _253
REMARK  109  A    between atoms: _252  and  _255
REMARK  110  A    between atoms: _255  and  _256
REMARK  111  A    between atoms: _256  and  _257
REMARK  112  A    between atoms: _262  and  _264
REMARK  113  A    between atoms: _264  and  _265
REMARK  114  A    between atoms: _264  and  _267
REMARK  115  A    between atoms: _267  and  _268
REMARK  116  A    between atoms: _271  and  _273
REMARK  117  A    between atoms: _273  and  _274
REMARK  118  A    between atoms: _273  and  _276
REMARK  119  A    between atoms: _276  and  _277
REMARK  120  A    between atoms: _277  and  _278
REMARK  121  A    between atoms: _281  and  _283
REMARK  122  A    between atoms: _283  and  _284
REMARK  123  A    between atoms: _283  and  _286
REMARK  124  A    between atoms: _286  and  _287
REMARK  125  A    between atoms: _289  and  _291
REMARK  126  A    between atoms: _291  and  _292
REMARK  127  A    between atoms: _291  and  _294
REMARK  128  A    between atoms: _294  and  _295
REMARK  129  A    between atoms: _298  and  _300
REMARK  130  A    between atoms: _300  and  _301
REMARK  131  A    between atoms: _303  and  _305
REMARK  132  A    between atoms: _305  and  _306
REMARK  133  A    between atoms: _308  and  _310
REMARK  134  A    between atoms: _310  and  _311
REMARK  135  A    between atoms: _310  and  _313
REMARK  136  A    between atoms: _313  and  _314
REMARK  137  A    between atoms: _317  and  _319
REMARK  138  A    between atoms: _319  and  _320
REMARK  139  A    between atoms: _319  and  _322
REMARK  140  A    between atoms: _322  and  _323
REMARK  141  A    between atoms: _325  and  _327
REMARK  142  A    between atoms: _327  and  _328
REMARK  143  A    between atoms: _327  and  _330
REMARK  144  A    between atoms: _330  and  _331
REMARK  145  A    between atoms: _336  and  _338
REMARK  146  A    between atoms: _338  and  _339
REMARK  147  A    between atoms: _338  and  _341
REMARK  148  A    between atoms: _341  and  _342
REMARK  149  A    between atoms: _345  and  _347
REMARK  150  A    between atoms: _347  and  _348
REMARK  151  A    between atoms: _351  and  _353
REMARK  152  A    between atoms: _353  and  _354
REMARK  153  A    between atoms: _353  and  _356
REMARK  154  A    between atoms: _356  and  _357
REMARK  155  A    between atoms: _359  and  _361
REMARK  156  A    between atoms: _361  and  _362
REMARK  157  A    between atoms: _361  and  _364
REMARK  158  A    between atoms: _364  and  _365
REMARK  159  A    between atoms: _367  and  _369
REMARK  160  A    between atoms: _369  and  _370
REMARK  161  A    between atoms: _369  and  _372
REMARK  162  A    between atoms: _372  and  _373
REMARK  163  A    between atoms: _373  and  _374
REMARK  164  A    between atoms: _379  and  _381
REMARK  165  A    between atoms: _381  and  _382
REMARK  166  A    between atoms: _381  and  _384
REMARK  167  A    between atoms: _384  and  _385
REMARK  168  A    between atoms: _388  and  _390
REMARK  169  A    between atoms: _390  and  _391
REMARK  170  A    between atoms: _390  and  _393
REMARK  171  A    between atoms: _393  and  _394
REMARK  172  A    between atoms: _400  and  _402
REMARK  173  A    between atoms: _402  and  _403
REMARK  174  A    between atoms: _402  and  _405
REMARK  175  A    between atoms: _405  and  _406
REMARK  176  A    between atoms: _409  and  _411
REMARK  177  A    between atoms: _411  and  _412
REMARK  178  A    between atoms: _411  and  _414
REMARK  179  A    between atoms: _414  and  _415
REMARK  180  A    between atoms: _418  and  _420
REMARK  181  A    between atoms: _420  and  _421
REMARK  182  A    between atoms: _420  and  _423
REMARK  183  A    between atoms: _423  and  _424
REMARK  184  A    between atoms: _424  and  _425
REMARK  185  A    between atoms: _428  and  _430
REMARK  186  A    between atoms: _430  and  _431
REMARK  187  A    between atoms: _430  and  _433
REMARK  188  A    between atoms: _433  and  _434
REMARK  189  A    between atoms: _439  and  _440
REMARK  190  A    between atoms: _442  and  _444
REMARK  191  A    between atoms: _444  and  _445
REMARK  192  A    between atoms: _444  and  _447
REMARK  193  A    between atoms: _447  and  _448
REMARK  194  A    between atoms: _451  and  _453
REMARK  195  A    between atoms: _453  and  _454
REMARK  196  A    between atoms: _453  and  _456
REMARK  197  A    between atoms: _456  and  _457
REMARK  198  A    between atoms: _457  and  _458
REMARK  199  A    between atoms: _463  and  _465
REMARK  200  A    between atoms: _465  and  _466
REMARK  201  A    between atoms: _465  and  _468
REMARK  202  A    between atoms: _468  and  _469
REMARK  203  A    between atoms: _474  and  _475
REMARK  204  A    between atoms: _477  and  _479
REMARK  205  A    between atoms: _479  and  _480
REMARK  206  A    between atoms: _479  and  _482
REMARK  207  A    between atoms: _482  and  _483
REMARK  208  A    between atoms: _486  and  _488
REMARK  209  A    between atoms: _488  and  _489
REMARK  210  A    between atoms: _488  and  _491
REMARK  211  A    between atoms: _491  and  _492
REMARK  212  A    between atoms: _497  and  _498
REMARK  213  A    between atoms: _500  and  _502
REMARK  214  A    between atoms: _502  and  _503
REMARK  215  A    between atoms: _502  and  _505
REMARK  216  A    between atoms: _505  and  _506
REMARK  217  A    between atoms: _511  and  _512
REMARK  218  A    between atoms: _515  and  _516
REMARK  219  A    between atoms: _521  and  _523
REMARK  220  A    between atoms: _523  and  _524
REMARK  221  A    between atoms: _523  and  _526
REMARK  222  A    between atoms: _526  and  _527
REMARK  223  A    between atoms: _530  and  _532
REMARK  224  A    between atoms: _532  and  _533
REMARK  225  A    between atoms: _532  and  _535
REMARK  226  A    between atoms: _535  and  _536
REMARK                            x       y       z     vdW  Elec       q    Type
REMARK                         _______ _______ _______ _____ _____    ______ ____
ROOT
ATOM      1  O   HOH     1      25.475  42.831  26.531  0.00  0.00    +0.000 OA
ENDROOT
TORSDOF 0
REMARK  Name = ../refined-set-2016/3aaq/3aaq_pocket.pdb
REMARK  226 active torsions:
REMARK  status: ('A' for Active; 'I' for Inactive)
REMARK    1  A    between atoms: _1  and  _3
REMARK    2  A    between atoms: _3  and  _4
REMARK    3  A    between atoms: _3  and  _6
REMARK    4  A    between atoms: _6  and  _7
REMARK    5  A    between atoms: _10  and  _12
REMARK    6  A    between atoms: _12  and  _13
REMARK    7  A    between atoms: _16  and  _18
REMARK    8  A    between atoms: _18  and  _19
REMARK    9  A    between atoms: _21  and  _23
REMARK   10  A    between atoms: _23  and  _24
REMARK   11  A    between atoms: _23  and  _26
REMARK   12  A    between atoms: _26  and  _27
REMARK   13  A    between atoms: _29  and  _31
REMARK   14  A    between atoms: _31  and  _32
REMARK   15  A    between atoms: _31  and  _34
REMARK   16  A    between atoms: _34  and  _35
REMARK   17  A    between atoms: _38  and  _40
REMARK   18  A    between atoms: _40  and  _41
REMARK   19  A    between atoms: _43  and  _45
REMARK   20  A    between atoms: _45  and  _46
REMARK   21  A    between atoms: _45  and  _48
REMARK   22  A    between atoms: _48  and  _49
REMARK   23  A    between atoms: _51  and  _53
REMARK   24  A    between atoms: _53  and  _54
REMARK   25  A    between atoms: _53  and  _56
REMARK   26  A    between atoms: _56  and  _57
REMARK   27  A    between atoms: _57  and  _58
REMARK   28  A    between atoms: _58  and  _59
REMARK   29  A    between atoms: _68  and  _70
REMARK   30  A    between atoms: _70  and  _71
REMARK   31  A    between atoms: _70  and  _73
REMARK   32  A    between atoms: _73  and  _74
REMARK   33  A    between atoms: _74  and  _75
REMARK   34  A    between atoms: _75  and  _76
REMARK   35  A    between atoms: _76  and  _77
REMARK   36  A    between atoms: _81  and  _83
REMARK   37  A    between atoms: _83  and  _84
REMARK   38  A    between atoms: _83  and  _86
REMARK   39  A    between atoms: _86  and  _87
REMARK   40  A    between atoms: _90  and  _92
REMARK   41  A    between atoms: _92  and  _93
REMARK   42  A    between atoms: _92  and  _95
REMARK   43  A    between atoms: _95  and  _96
REMARK   44  A    between atoms: _96  and  _97
REMARK   45  A    between atoms: _97  and  _98
REMARK   46  A    between atoms: _98  and  _99
REMARK   47  A    between atoms: _104  and  _105
REMARK   48  A    between atoms: _110  and  _112
REMARK   49  A    between atoms: _112  and  _113
REMARK   50  A    between atoms: _115  and  _117
REMARK   51  A    between atoms: _117  and  _118
REMARK   52  A    between atoms: _117  and  _120
REMARK   53  A    between atoms: _120  and  _121
REMARK   54  A    between atoms: _127  and  _129
REMARK   55  A    between atoms: _129  and  _130
REMARK   56  A    between atoms: _129  and  _132
REMARK   57  A    between atoms: _132  and  _133
REMARK   58  A    between atoms: _136  and  _138
REMARK   59  A    between atoms: _138  and  _139
REMARK   60  A    between atoms: _142  and  _144
REMARK   61  A    between atoms: _144  and  _145
REMARK   62  A    between atoms: _147  and  _149
REMARK   63  A    between atoms: _149  and  _150
REMARK   64  A    between atoms: _149  and  _152
REMARK   65  A    between atoms: _152  and  _153
REMARK   66  A    between atoms: _153  and  _154
REMARK   67  A    between atoms: _156  and  _158
REMARK   68  A    between atoms: _158  and  _159
REMARK   69  A    between atoms: _158  and  _161
REMARK   70  A    between atoms: _161  and  _162
REMARK   71  A    between atoms: _162  and  _163
REMARK   72  A    between atoms: _163  and  _164
REMARK   73  A    between atoms: _173  and  _175
REMARK   74  A    between atoms: _175  and  _176
REMARK   75  A    between atoms: _175  and  _178
REMARK   76  A    between atoms: _178  and  _179
REMARK   77  A    between atoms: _179  and  _180
REMARK   78  A    between atoms: _183  and  _185
REMARK   79  A    between atoms: _185  and  _186
REMARK   80  A    between atoms: _185  and  _188
REMARK   81  A    between atoms: _188  and  _189
REMARK   82  A    between atoms: _192  and  _194
REMARK   83  A    between atoms: _194  and  _195
REMARK   84  A    between atoms: _194  and  _197
REMARK   85  A    between atoms: _197  and  _198
REMARK   86  A    between atoms: _198  and  _199
REMARK   87  A    between atoms: _201  and  _203
REMARK   88  A    between atoms: _203  and  _204
REMARK   89  A    between atoms: _206  and  _208
REMARK   90  A    between atoms: _208  and  _209
REMARK   91  A    between atoms: _211  and  _213
REMARK   92  A    between atoms: _213  and  _214
REMARK   93  A    between atoms: _217  and  _219
REMARK   94  A    between atoms: _219  and  _220
REMARK   95  A    between atoms: _219  and  _222
REMARK   96  A    between atoms: _222  and  _223
REMARK   97  A    between atoms: _225  and  _227
REMARK   98  A    between atoms: _227  and  _228
REMARK   99  A    between atoms: _227  and  _230
REMARK  100  A    between atoms: _233  and  _235
REMARK  101  A    between atoms: _235  and  _236
REMARK  102  A    between atoms: _235  and  _238
REMARK  103  A    between atoms: _238  and  _239
REMARK  104  A    between atoms: _239  and  _240
REMARK  105  A    between atoms: _245  and  _247
REMARK  106  A    between atoms: _247  and  _248
REMARK  107  A    between atoms: _250  and  _252
REMARK  108  A    between atoms: _252  and  _253
REMARK  109  A    between atoms: _252  and  _255
REMARK  110  A    between atoms: _255  and  _256
REMARK  111  A    between atoms: _256  and  _257
REMARK  112  A    between atoms: _262  and  _264
REMARK  113  A    between atoms: _264  and  _265
REMARK  114  A    between atoms: _264  and  _267
REMARK  115  A    between atoms: _267  and  _268
REMARK  116  A    between atoms: _271  and  _273
REMARK  117  A    between atoms: _273  and  _274
REMARK  118  A    between atoms: _273  and  _276
REMARK  119  A    between atoms: _276  and  _277
REMARK  120  A    between atoms: _277  and  _278
REMARK  121  A    between atoms: _281  and  _283
REMARK  122  A    between atoms: _283  and  _284
REMARK  123  A    between atoms: _283  and  _286
REMARK  124  A    between atoms: _286  and  _287
REMARK  125  A    between atoms: _289  and  _291
REMARK  126  A    between atoms: _291  and  _292
REMARK  127  A    between atoms: _291  and  _294
REMARK  128  A    between atoms: _294  and  _295
REMARK  129  A    between atoms: _298  and  _300
REMARK  130  A    between atoms: _300  and  _301
REMARK  131  A    between atoms: _303  and  _305
REMARK  132  A    between atoms: _305  and  _306
REMARK  133  A    between atoms: _308  and  _310
REMARK  134  A    between atoms: _310  and  _311
REMARK  135  A    between atoms: _310  and  _313
REMARK  136  A    between atoms: _313  and  _314
REMARK  137  A    between atoms: _317  and  _319
REMARK  138  A    between atoms: _319  and  _320
REMARK  139  A    between atoms: _319  and  _322
REMARK  140  A    between atoms: _322  and  _323
REMARK  141  A    between atoms: _325  and  _327
REMARK  142  A    between atoms: _327  and  _328
REMARK  143  A    between atoms: _327  and  _330
REMARK  144  A    between atoms: _330  and  _331
REMARK  145  A    between atoms: _336  and  _338
REMARK  146  A    between atoms: _338  and  _339
REMARK  147  A    between atoms: _338  and  _341
REMARK  148  A    between atoms: _341  and  _342
REMARK  149  A    between atoms: _345  and  _347
REMARK  150  A    between atoms: _347  and  _348
REMARK  151  A    between atoms: _351  and  _353
REMARK  152  A    between atoms: _353  and  _354
REMARK  153  A    between atoms: _353  and  _356
REMARK  154  A    between atoms: _356  and  _357
REMARK  155  A    between atoms: _359  and  _361
REMARK  156  A    between atoms: _361  and  _362
REMARK  157  A    between atoms: _361  and  _364
REMARK  158  A    between atoms: _364  and  _365
REMARK  159  A    between atoms: _367  and  _369
REMARK  160  A    between atoms: _369  and  _370
REMARK  161  A    between atoms: _369  and  _372
REMARK  162  A    between atoms: _372  and  _373
REMARK  163  A    between atoms: _373  and  _374
REMARK  164  A    between atoms: _379  and  _381
REMARK  165  A    between atoms: _381  and  _382
REMARK  166  A    between atoms: _381  and  _384
REMARK  167  A    between atoms: _384  and  _385
REMARK  168  A    between atoms: _388  and  _390
REMARK  169  A    between atoms: _390  and  _391
REMARK  170  A    between atoms: _390  and  _393
REMARK  171  A    between atoms: _393  and  _394
REMARK  172  A    between atoms: _400  and  _402
REMARK  173  A    between atoms: _402  and  _403
REMARK  174  A    between atoms: _402  and  _405
REMARK  175  A    between atoms: _405  and  _406
REMARK  176  A    between atoms: _409  and  _411
REMARK  177  A    between atoms: _411  and  _412
REMARK  178  A    between atoms: _411  and  _414
REMARK  179  A    between atoms: _414  and  _415
REMARK  180  A    between atoms: _418  and  _420
REMARK  181  A    between atoms: _420  and  _421
REMARK  182  A    between atoms: _420  and  _423
REMARK  183  A    between atoms: _423  and  _424
REMARK  184  A    between atoms: _424  and  _425
REMARK  185  A    between atoms: _428  and  _430
REMARK  186  A    between atoms: _430  and  _431
REMARK  187  A    between atoms: _430  and  _433
REMARK  188  A    between atoms: _433  and  _434
REMARK  189  A    between atoms: _439  and  _440
REMARK  190  A    between atoms: _442  and  _444
REMARK  191  A    between atoms: _444  and  _445
REMARK  192  A    between atoms: _444  and  _447
REMARK  193  A    between atoms: _447  and  _448
REMARK  194  A    between atoms: _451  and  _453
REMARK  195  A    between atoms: _453  and  _454
REMARK  196  A    between atoms: _453  and  _456
REMARK  197  A    between atoms: _456  and  _457
REMARK  198  A    between atoms: _457  and  _458
REMARK  199  A    between atoms: _463  and  _465
REMARK  200  A    between atoms: _465  and  _466
REMARK  201  A    between atoms: _465  and  _468
REMARK  202  A    between atoms: _468  and  _469
REMARK  203  A    between atoms: _474  and  _475
REMARK  204  A    between atoms: _477  and  _479
REMARK  205  A    between atoms: _479  and  _480
REMARK  206  A    between atoms: _479  and  _482
REMARK  207  A    between atoms: _482  and  _483
REMARK  208  A    between atoms: _486  and  _488
REMARK  209  A    between atoms: _488  and  _489
REMARK  210  A    between atoms: _488  and  _491
REMARK  211  A    between atoms: _491  and  _492
REMARK  212  A    between atoms: _497  and  _498
REMARK  213  A    between atoms: _500  and  _502
REMARK  214  A    between atoms: _502  and  _503
REMARK  215  A    between atoms: _502  and  _505
REMARK  216  A    between atoms: _505  and  _506
REMARK  217  A    between atoms: _511  and  _512
REMARK  218  A    between atoms: _515  and  _516
REMARK  219  A    between atoms: _521  and  _523
REMARK  220  A    between atoms: _523  and  _524
REMARK  221  A    between atoms: _523  and  _526
REMARK  222  A    between atoms: _526  and  _527
REMARK  223  A    between atoms: _530  and  _532
REMARK  224  A    between atoms: _532  and  _533
REMARK  225  A    between atoms: _532  and  _535
REMARK  226  A    between atoms: _535  and  _536
REMARK                            x       y       z     vdW  Elec       q    Type
REMARK                         _______ _______ _______ _____ _____    ______ ____
ROOT
ATOM      1  O   HOH     1      23.221  41.705  28.816  0.00  0.00    +0.000 OA
ENDROOT
TORSDOF 0
REMARK  Name = ../refined-set-2016/3aaq/3aaq_pocket.pdb
REMARK  226 active torsions:
REMARK  status: ('A' for Active; 'I' for Inactive)
REMARK    1  A    between atoms: _1  and  _3
REMARK    2  A    between atoms: _3  and  _4
REMARK    3  A    between atoms: _3  and  _6
REMARK    4  A    between atoms: _6  and  _7
REMARK    5  A    between atoms: _10  and  _12
REMARK    6  A    between atoms: _12  and  _13
REMARK    7  A    between atoms: _16  and  _18
REMARK    8  A    between atoms: _18  and  _19
REMARK    9  A    between atoms: _21  and  _23
REMARK   10  A    between atoms: _23  and  _24
REMARK   11  A    between atoms: _23  and  _26
REMARK   12  A    between atoms: _26  and  _27
REMARK   13  A    between atoms: _29  and  _31
REMARK   14  A    between atoms: _31  and  _32
REMARK   15  A    between atoms: _31  and  _34
REMARK   16  A    between atoms: _34  and  _35
REMARK   17  A    between atoms: _38  and  _40
REMARK   18  A    between atoms: _40  and  _41
REMARK   19  A    between atoms: _43  and  _45
REMARK   20  A    between atoms: _45  and  _46
REMARK   21  A    between atoms: _45  and  _48
REMARK   22  A    between atoms: _48  and  _49
REMARK   23  A    between atoms: _51  and  _53
REMARK   24  A    between atoms: _53  and  _54
REMARK   25  A    between atoms: _53  and  _56
REMARK   26  A    between atoms: _56  and  _57
REMARK   27  A    between atoms: _57  and  _58
REMARK   28  A    between atoms: _58  and  _59
REMARK   29  A    between atoms: _68  and  _70
REMARK   30  A    between atoms: _70  and  _71
REMARK   31  A    between atoms: _70  and  _73
REMARK   32  A    between atoms: _73  and  _74
REMARK   33  A    between atoms: _74  and  _75
REMARK   34  A    between atoms: _75  and  _76
REMARK   35  A    between atoms: _76  and  _77
REMARK   36  A    between atoms: _81  and  _83
REMARK   37  A    between atoms: _83  and  _84
REMARK   38  A    between atoms: _83  and  _86
REMARK   39  A    between atoms: _86  and  _87
REMARK   40  A    between atoms: _90  and  _92
REMARK   41  A    between atoms: _92  and  _93
REMARK   42  A    between atoms: _92  and  _95
REMARK   43  A    between atoms: _95  and  _96
REMARK   44  A    between atoms: _96  and  _97
REMARK   45  A    between atoms: _97  and  _98
REMARK   46  A    between atoms: _98  and  _99
REMARK   47  A    between atoms: _104  and  _105
REMARK   48  A    between atoms: _110  and  _112
REMARK   49  A    between atoms: _112  and  _113
REMARK   50  A    between atoms: _115  and  _117
REMARK   51  A    between atoms: _117  and  _118
REMARK   52  A    between atoms: _117  and  _120
REMARK   53  A    between atoms: _120  and  _121
REMARK   54  A    between atoms: _127  and  _129
REMARK   55  A    between atoms: _129  and  _130
REMARK   56  A    between atoms: _129  and  _132
REMARK   57  A    between atoms: _132  and  _133
REMARK   58  A    between atoms: _136  and  _138
REMARK   59  A    between atoms: _138  and  _139
REMARK   60  A    between atoms: _142  and  _144
REMARK   61  A    between atoms: _144  and  _145
REMARK   62  A    between atoms: _147  and  _149
REMARK   63  A    between atoms: _149  and  _150
REMARK   64  A    between atoms: _149  and  _152
REMARK   65  A    between atoms: _152  and  _153
REMARK   66  A    between atoms: _153  and  _154
REMARK   67  A    between atoms: _156  and  _158
REMARK   68  A    between atoms: _158  and  _159
REMARK   69  A    between atoms: _158  and  _161
REMARK   70  A    between atoms: _161  and  _162
REMARK   71  A    between atoms: _162  and  _163
REMARK   72  A    between atoms: _163  and  _164
REMARK   73  A    between atoms: _173  and  _175
REMARK   74  A    between atoms: _175  and  _176
REMARK   75  A    between atoms: _175  and  _178
REMARK   76  A    between atoms: _178  and  _179
REMARK   77  A    between atoms: _179  and  _180
REMARK   78  A    between atoms: _183  and  _185
REMARK   79  A    between atoms: _185  and  _186
REMARK   80  A    between atoms: _185  and  _188
REMARK   81  A    between atoms: _188  and  _189
REMARK   82  A    between atoms: _192  and  _194
REMARK   83  A    between atoms: _194  and  _195
REMARK   84  A    between atoms: _194  and  _197
REMARK   85  A    between atoms: _197  and  _198
REMARK   86  A    between atoms: _198  and  _199
REMARK   87  A    between atoms: _201  and  _203
REMARK   88  A    between atoms: _203  and  _204
REMARK   89  A    between atoms: _206  and  _208
REMARK   90  A    between atoms: _208  and  _209
REMARK   91  A    between atoms: _211  and  _213
REMARK   92  A    between atoms: _213  and  _214
REMARK   93  A    between atoms: _217  and  _219
REMARK   94  A    between atoms: _219  and  _220
REMARK   95  A    between atoms: _219  and  _222
REMARK   96  A    between atoms: _222  and  _223
REMARK   97  A    between atoms: _225  and  _227
REMARK   98  A    between atoms: _227  and  _228
REMARK   99  A    between atoms: _227  and  _230
REMARK  100  A    between atoms: _233  and  _235
REMARK  101  A    between atoms: _235  and  _236
REMARK  102  A    between atoms: _235  and  _238
REMARK  103  A    between atoms: _238  and  _239
REMARK  104  A    between atoms: _239  and  _240
REMARK  105  A    between atoms: _245  and  _247
REMARK  106  A    between atoms: _247  and  _248
REMARK  107  A    between atoms: _250  and  _252
REMARK  108  A    between atoms: _252  and  _253
REMARK  109  A    between atoms: _252  and  _255
REMARK  110  A    between atoms: _255  and  _256
REMARK  111  A    between atoms: _256  and  _257
REMARK  112  A    between atoms: _262  and  _264
REMARK  113  A    between atoms: _264  and  _265
REMARK  114  A    between atoms: _264  and  _267
REMARK  115  A    between atoms: _267  and  _268
REMARK  116  A    between atoms: _271  and  _273
REMARK  117  A    between atoms: _273  and  _274
REMARK  118  A    between atoms: _273  and  _276
REMARK  119  A    between atoms: _276  and  _277
REMARK  120  A    between atoms: _277  and  _278
REMARK  121  A    between atoms: _281  and  _283
REMARK  122  A    between atoms: _283  and  _284
REMARK  123  A    between atoms: _283  and  _286
REMARK  124  A    between atoms: _286  and  _287
REMARK  125  A    between atoms: _289  and  _291
REMARK  126  A    between atoms: _291  and  _292
REMARK  127  A    between atoms: _291  and  _294
REMARK  128  A    between atoms: _294  and  _295
REMARK  129  A    between atoms: _298  and  _300
REMARK  130  A    between atoms: _300  and  _301
REMARK  131  A    between atoms: _303  and  _305
REMARK  132  A    between atoms: _305  and  _306
REMARK  133  A    between atoms: _308  and  _310
REMARK  134  A    between atoms: _310  and  _311
REMARK  135  A    between atoms: _310  and  _313
REMARK  136  A    between atoms: _313  and  _314
REMARK  137  A    between atoms: _317  and  _319
REMARK  138  A    between atoms: _319  and  _320
REMARK  139  A    between atoms: _319  and  _322
REMARK  140  A    between atoms: _322  and  _323
REMARK  141  A    between atoms: _325  and  _327
REMARK  142  A    between atoms: _327  and  _328
REMARK  143  A    between atoms: _327  and  _330
REMARK  144  A    between atoms: _330  and  _331
REMARK  145  A    between atoms: _336  and  _338
REMARK  146  A    between atoms: _338  and  _339
REMARK  147  A    between atoms: _338  and  _341
REMARK  148  A    between atoms: _341  and  _342
REMARK  149  A    between atoms: _345  and  _347
REMARK  150  A    between atoms: _347  and  _348
REMARK  151  A    between atoms: _351  and  _353
REMARK  152  A    between atoms: _353  and  _354
REMARK  153  A    between atoms: _353  and  _356
REMARK  154  A    between atoms: _356  and  _357
REMARK  155  A    between atoms: _359  and  _361
REMARK  156  A    between atoms: _361  and  _362
REMARK  157  A    between atoms: _361  and  _364
REMARK  158  A    between atoms: _364  and  _365
REMARK  159  A    between atoms: _367  and  _369
REMARK  160  A    between atoms: _369  and  _370
REMARK  161  A    between atoms: _369  and  _372
REMARK  162  A    between atoms: _372  and  _373
REMARK  163  A    between atoms: _373  and  _374
REMARK  164  A    between atoms: _379  and  _381
REMARK  165  A    between atoms: _381  and  _382
REMARK  166  A    between atoms: _381  and  _384
REMARK  167  A    between atoms: _384  and  _385
REMARK  168  A    between atoms: _388  and  _390
REMARK  169  A    between atoms: _390  and  _391
REMARK  170  A    between atoms: _390  and  _393
REMARK  171  A    between atoms: _393  and  _394
REMARK  172  A    between atoms: _400  and  _402
REMARK  173  A    between atoms: _402  and  _403
REMARK  174  A    between atoms: _402  and  _405
REMARK  175  A    between atoms: _405  and  _406
REMARK  176  A    between atoms: _409  and  _411
REMARK  177  A    between atoms: _411  and  _412
REMARK  178  A    between atoms: _411  and  _414
REMARK  179  A    between atoms: _414  and  _415
REMARK  180  A    between atoms: _418  and  _420
REMARK  181  A    between atoms: _420  and  _421
REMARK  182  A    between atoms: _420  and  _423
REMARK  183  A    between atoms: _423  and  _424
REMARK  184  A    between atoms: _424  and  _425
REMARK  185  A    between atoms: _428  and  _430
REMARK  186  A    between atoms: _430  and  _431
REMARK  187  A    between atoms: _430  and  _433
REMARK  188  A    between atoms: _433  and  _434
REMARK  189  A    between atoms: _439  and  _440
REMARK  190  A    between atoms: _442  and  _444
REMARK  191  A    between atoms: _444  and  _445
REMARK  192  A    between atoms: _444  and  _447
REMARK  193  A    between atoms: _447  and  _448
REMARK  194  A    between atoms: _451  and  _453
REMARK  195  A    between atoms: _453  and  _454
REMARK  196  A    between atoms: _453  and  _456
REMARK  197  A    between atoms: _456  and  _457
REMARK  198  A    between atoms: _457  and  _458
REMARK  199  A    between atoms: _463  and  _465
REMARK  200  A    between atoms: _465  and  _466
REMARK  201  A    between atoms: _465  and  _468
REMARK  202  A    between atoms: _468  and  _469
REMARK  203  A    between atoms: _474  and  _475
REMARK  204  A    between atoms: _477  and  _479
REMARK  205  A    between atoms: _479  and  _480
REMARK  206  A    between atoms: _479  and  _482
REMARK  207  A    between atoms: _482  and  _483
REMARK  208  A    between atoms: _486  and  _488
REMARK  209  A    between atoms: _488  and  _489
REMARK  210  A    between atoms: _488  and  _491
REMARK  211  A    between atoms: _491  and  _492
REMARK  212  A    between atoms: _497  and  _498
REMARK  213  A    between atoms: _500  and  _502
REMARK  214  A    between atoms: _502  and  _503
REMARK  215  A    between atoms: _502  and  _505
REMARK  216  A    between atoms: _505  and  _506
REMARK  217  A    between atoms: _511  and  _512
REMARK  218  A    between atoms: _515  and  _516
REMARK  219  A    between atoms: _521  and  _523
REMARK  220  A    between atoms: _523  and  _524
REMARK  221  A    between atoms: _523  and  _526
REMARK  222  A    between atoms: _526  and  _527
REMARK  223  A    between atoms: _530  and  _532
REMARK  224  A    between atoms: _532  and  _533
REMARK  225  A    between atoms: _532  and  _535
REMARK  226  A    between atoms: _535  and  _536
REMARK                            x       y       z     vdW  Elec       q    Type
REMARK                         _______ _______ _______ _____ _____    ______ ____
ROOT
ATOM      1  O   HOH     1      23.219  32.071  26.815  0.00  0.00    +0.000 OA
ENDROOT
TORSDOF 0
REMARK  Name = ../refined-set-2016/3aaq/3aaq_pocket.pdb
REMARK  226 active torsions:
REMARK  status: ('A' for Active; 'I' for Inactive)
REMARK    1  A    between atoms: _1  and  _3
REMARK    2  A    between atoms: _3  and  _4
REMARK    3  A    between atoms: _3  and  _6
REMARK    4  A    between atoms: _6  and  _7
REMARK    5  A    between atoms: _10  and  _12
REMARK    6  A    between atoms: _12  and  _13
REMARK    7  A    between atoms: _16  and  _18
REMARK    8  A    between atoms: _18  and  _19
REMARK    9  A    between atoms: _21  and  _23
REMARK   10  A    between atoms: _23  and  _24
REMARK   11  A    between atoms: _23  and  _26
REMARK   12  A    between atoms: _26  and  _27
REMARK   13  A    between atoms: _29  and  _31
REMARK   14  A    between atoms: _31  and  _32
REMARK   15  A    between atoms: _31  and  _34
REMARK   16  A    between atoms: _34  and  _35
REMARK   17  A    between atoms: _38  and  _40
REMARK   18  A    between atoms: _40  and  _41
REMARK   19  A    between atoms: _43  and  _45
REMARK   20  A    between atoms: _45  and  _46
REMARK   21  A    between atoms: _45  and  _48
REMARK   22  A    between atoms: _48  and  _49
REMARK   23  A    between atoms: _51  and  _53
REMARK   24  A    between atoms: _53  and  _54
REMARK   25  A    between atoms: _53  and  _56
REMARK   26  A    between atoms: _56  and  _57
REMARK   27  A    between atoms: _57  and  _58
REMARK   28  A    between atoms: _58  and  _59
REMARK   29  A    between atoms: _68  and  _70
REMARK   30  A    between atoms: _70  and  _71
REMARK   31  A    between atoms: _70  and  _73
REMARK   32  A    between atoms: _73  and  _74
REMARK   33  A    between atoms: _74  and  _75
REMARK   34  A    between atoms: _75  and  _76
REMARK   35  A    between atoms: _76  and  _77
REMARK   36  A    between atoms: _81  and  _83
REMARK   37  A    between atoms: _83  and  _84
REMARK   38  A    between atoms: _83  and  _86
REMARK   39  A    between atoms: _86  and  _87
REMARK   40  A    between atoms: _90  and  _92
REMARK   41  A    between atoms: _92  and  _93
REMARK   42  A    between atoms: _92  and  _95
REMARK   43  A    between atoms: _95  and  _96
REMARK   44  A    between atoms: _96  and  _97
REMARK   45  A    between atoms: _97  and  _98
REMARK   46  A    between atoms: _98  and  _99
REMARK   47  A    between atoms: _104  and  _105
REMARK   48  A    between atoms: _110  and  _112
REMARK   49  A    between atoms: _112  and  _113
REMARK   50  A    between atoms: _115  and  _117
REMARK   51  A    between atoms: _117  and  _118
REMARK   52  A    between atoms: _117  and  _120
REMARK   53  A    between atoms: _120  and  _121
REMARK   54  A    between atoms: _127  and  _129
REMARK   55  A    between atoms: _129  and  _130
REMARK   56  A    between atoms: _129  and  _132
REMARK   57  A    between atoms: _132  and  _133
REMARK   58  A    between atoms: _136  and  _138
REMARK   59  A    between atoms: _138  and  _139
REMARK   60  A    between atoms: _142  and  _144
REMARK   61  A    between atoms: _144  and  _145
REMARK   62  A    between atoms: _147  and  _149
REMARK   63  A    between atoms: _149  and  _150
REMARK   64  A    between atoms: _149  and  _152
REMARK   65  A    between atoms: _152  and  _153
REMARK   66  A    between atoms: _153  and  _154
REMARK   67  A    between atoms: _156  and  _158
REMARK   68  A    between atoms: _158  and  _159
REMARK   69  A    between atoms: _158  and  _161
REMARK   70  A    between atoms: _161  and  _162
REMARK   71  A    between atoms: _162  and  _163
REMARK   72  A    between atoms: _163  and  _164
REMARK   73  A    between atoms: _173  and  _175
REMARK   74  A    between atoms: _175  and  _176
REMARK   75  A    between atoms: _175  and  _178
REMARK   76  A    between atoms: _178  and  _179
REMARK   77  A    between atoms: _179  and  _180
REMARK   78  A    between atoms: _183  and  _185
REMARK   79  A    between atoms: _185  and  _186
REMARK   80  A    between atoms: _185  and  _188
REMARK   81  A    between atoms: _188  and  _189
REMARK   82  A    between atoms: _192  and  _194
REMARK   83  A    between atoms: _194  and  _195
REMARK   84  A    between atoms: _194  and  _197
REMARK   85  A    between atoms: _197  and  _198
REMARK   86  A    between atoms: _198  and  _199
REMARK   87  A    between atoms: _201  and  _203
REMARK   88  A    between atoms: _203  and  _204
REMARK   89  A    between atoms: _206  and  _208
REMARK   90  A    between atoms: _208  and  _209
REMARK   91  A    between atoms: _211  and  _213
REMARK   92  A    between atoms: _213  and  _214
REMARK   93  A    between atoms: _217  and  _219
REMARK   94  A    between atoms: _219  and  _220
REMARK   95  A    between atoms: _219  and  _222
REMARK   96  A    between atoms: _222  and  _223
REMARK   97  A    between atoms: _225  and  _227
REMARK   98  A    between atoms: _227  and  _228
REMARK   99  A    between atoms: _227  and  _230
REMARK  100  A    between atoms: _233  and  _235
REMARK  101  A    between atoms: _235  and  _236
REMARK  102  A    between atoms: _235  and  _238
REMARK  103  A    between atoms: _238  and  _239
REMARK  104  A    between atoms: _239  and  _240
REMARK  105  A    between atoms: _245  and  _247
REMARK  106  A    between atoms: _247  and  _248
REMARK  107  A    between atoms: _250  and  _252
REMARK  108  A    between atoms: _252  and  _253
REMARK  109  A    between atoms: _252  and  _255
REMARK  110  A    between atoms: _255  and  _256
REMARK  111  A    between atoms: _256  and  _257
REMARK  112  A    between atoms: _262  and  _264
REMARK  113  A    between atoms: _264  and  _265
REMARK  114  A    between atoms: _264  and  _267
REMARK  115  A    between atoms: _267  and  _268
REMARK  116  A    between atoms: _271  and  _273
REMARK  117  A    between atoms: _273  and  _274
REMARK  118  A    between atoms: _273  and  _276
REMARK  119  A    between atoms: _276  and  _277
REMARK  120  A    between atoms: _277  and  _278
REMARK  121  A    between atoms: _281  and  _283
REMARK  122  A    between atoms: _283  and  _284
REMARK  123  A    between atoms: _283  and  _286
REMARK  124  A    between atoms: _286  and  _287
REMARK  125  A    between atoms: _289  and  _291
REMARK  126  A    between atoms: _291  and  _292
REMARK  127  A    between atoms: _291  and  _294
REMARK  128  A    between atoms: _294  and  _295
REMARK  129  A    between atoms: _298  and  _300
REMARK  130  A    between atoms: _300  and  _301
REMARK  131  A    between atoms: _303  and  _305
REMARK  132  A    between atoms: _305  and  _306
REMARK  133  A    between atoms: _308  and  _310
REMARK  134  A    between atoms: _310  and  _311
REMARK  135  A    between atoms: _310  and  _313
REMARK  136  A    between atoms: _313  and  _314
REMARK  137  A    between atoms: _317  and  _319
REMARK  138  A    between atoms: _319  and  _320
REMARK  139  A    between atoms: _319  and  _322
REMARK  140  A    between atoms: _322  and  _323
REMARK  141  A    between atoms: _325  and  _327
REMARK  142  A    between atoms: _327  and  _328
REMARK  143  A    between atoms: _327  and  _330
REMARK  144  A    between atoms: _330  and  _331
REMARK  145  A    between atoms: _336  and  _338
REMARK  146  A    between atoms: _338  and  _339
REMARK  147  A    between atoms: _338  and  _341
REMARK  148  A    between atoms: _341  and  _342
REMARK  149  A    between atoms: _345  and  _347
REMARK  150  A    between atoms: _347  and  _348
REMARK  151  A    between atoms: _351  and  _353
REMARK  152  A    between atoms: _353  and  _354
REMARK  153  A    between atoms: _353  and  _356
REMARK  154  A    between atoms: _356  and  _357
REMARK  155  A    between atoms: _359  and  _361
REMARK  156  A    between atoms: _361  and  _362
REMARK  157  A    between atoms: _361  and  _364
REMARK  158  A    between atoms: _364  and  _365
REMARK  159  A    between atoms: _367  and  _369
REMARK  160  A    between atoms: _369  and  _370
REMARK  161  A    between atoms: _369  and  _372
REMARK  162  A    between atoms: _372  and  _373
REMARK  163  A    between atoms: _373  and  _374
REMARK  164  A    between atoms: _379  and  _381
REMARK  165  A    between atoms: _381  and  _382
REMARK  166  A    between atoms: _381  and  _384
REMARK  167  A    between atoms: _384  and  _385
REMARK  168  A    between atoms: _388  and  _390
REMARK  169  A    between atoms: _390  and  _391
REMARK  170  A    between atoms: _390  and  _393
REMARK  171  A    between atoms: _393  and  _394
REMARK  172  A    between atoms: _400  and  _402
REMARK  173  A    between atoms: _402  and  _403
REMARK  174  A    between atoms: _402  and  _405
REMARK  175  A    between atoms: _405  and  _406
REMARK  176  A    between atoms: _409  and  _411
REMARK  177  A    between atoms: _411  and  _412
REMARK  178  A    between atoms: _411  and  _414
REMARK  179  A    between atoms: _414  and  _415
REMARK  180  A    between atoms: _418  and  _420
REMARK  181  A    between atoms: _420  and  _421
REMARK  182  A    between atoms: _420  and  _423
REMARK  183  A    between atoms: _423  and  _424
REMARK  184  A    between atoms: _424  and  _425
REMARK  185  A    between atoms: _428  and  _430
REMARK  186  A    between atoms: _430  and  _431
REMARK  187  A    between atoms: _430  and  _433
REMARK  188  A    between atoms: _433  and  _434
REMARK  189  A    between atoms: _439  and  _440
REMARK  190  A    between atoms: _442  and  _444
REMARK  191  A    between atoms: _444  and  _445
REMARK  192  A    between atoms: _444  and  _447
REMARK  193  A    between atoms: _447  and  _448
REMARK  194  A    between atoms: _451  and  _453
REMARK  195  A    between atoms: _453  and  _454
REMARK  196  A    between atoms: _453  and  _456
REMARK  197  A    between atoms: _456  and  _457
REMARK  198  A    between atoms: _457  and  _458
REMARK  199  A    between atoms: _463  and  _465
REMARK  200  A    between atoms: _465  and  _466
REMARK  201  A    between atoms: _465  and  _468
REMARK  202  A    between atoms: _468  and  _469
REMARK  203  A    between atoms: _474  and  _475
REMARK  204  A    between atoms: _477  and  _479
REMARK  205  A    between atoms: _479  and  _480
REMARK  206  A    between atoms: _479  and  _482
REMARK  207  A    between atoms: _482  and  _483
REMARK  208  A    between atoms: _486  and  _488
REMARK  209  A    between atoms: _488  and  _489
REMARK  210  A    between atoms: _488  and  _491
REMARK  211  A    between atoms: _491  and  _492
REMARK  212  A    between atoms: _497  and  _498
REMARK  213  A    between atoms: _500  and  _502
REMARK  214  A    between atoms: _502  and  _503
REMARK  215  A    between atoms: _502  and  _505
REMARK  216  A    between atoms: _505  and  _506
REMARK  217  A    between atoms: _511  and  _512
REMARK  218  A    between atoms: _515  and  _516
REMARK  219  A    between atoms: _521  and  _523
REMARK  220  A    between atoms: _523  and  _524
REMARK  221  A    between atoms: _523  and  _526
REMARK  222  A    between atoms: _526  and  _527
REMARK  223  A    between atoms: _530  and  _532
REMARK  224  A    between atoms: _532  and  _533
REMARK  225  A    between atoms: _532  and  _535
REMARK  226  A    between atoms: _535  and  _536
REMARK                            x       y       z     vdW  Elec       q    Type
REMARK                         _______ _______ _______ _____ _____    ______ ____
ROOT
ATOM      1  O   HOH     1      22.083  39.967  26.527  0.00  0.00    +0.000 OA
ENDROOT
TORSDOF 0
REMARK  Name = ../refined-set-2016/3aaq/3aaq_pocket.pdb
REMARK  226 active torsions:
REMARK  status: ('A' for Active; 'I' for Inactive)
REMARK    1  A    between atoms: _1  and  _3
REMARK    2  A    between atoms: _3  and  _4
REMARK    3  A    between atoms: _3  and  _6
REMARK    4  A    between atoms: _6  and  _7
REMARK    5  A    between atoms: _10  and  _12
REMARK    6  A    between atoms: _12  and  _13
REMARK    7  A    between atoms: _16  and  _18
REMARK    8  A    between atoms: _18  and  _19
REMARK    9  A    between atoms: _21  and  _23
REMARK   10  A    between atoms: _23  and  _24
REMARK   11  A    between atoms: _23  and  _26
REMARK   12  A    between atoms: _26  and  _27
REMARK   13  A    between atoms: _29  and  _31
REMARK   14  A    between atoms: _31  and  _32
REMARK   15  A    between atoms: _31  and  _34
REMARK   16  A    between atoms: _34  and  _35
REMARK   17  A    between atoms: _38  and  _40
REMARK   18  A    between atoms: _40  and  _41
REMARK   19  A    between atoms: _43  and  _45
REMARK   20  A    between atoms: _45  and  _46
REMARK   21  A    between atoms: _45  and  _48
REMARK   22  A    between atoms: _48  and  _49
REMARK   23  A    between atoms: _51  and  _53
REMARK   24  A    between atoms: _53  and  _54
REMARK   25  A    between atoms: _53  and  _56
REMARK   26  A    between atoms: _56  and  _57
REMARK   27  A    between atoms: _57  and  _58
REMARK   28  A    between atoms: _58  and  _59
REMARK   29  A    between atoms: _68  and  _70
REMARK   30  A    between atoms: _70  and  _71
REMARK   31  A    between atoms: _70  and  _73
REMARK   32  A    between atoms: _73  and  _74
REMARK   33  A    between atoms: _74  and  _75
REMARK   34  A    between atoms: _75  and  _76
REMARK   35  A    between atoms: _76  and  _77
REMARK   36  A    between atoms: _81  and  _83
REMARK   37  A    between atoms: _83  and  _84
REMARK   38  A    between atoms: _83  and  _86
REMARK   39  A    between atoms: _86  and  _87
REMARK   40  A    between atoms: _90  and  _92
REMARK   41  A    between atoms: _92  and  _93
REMARK   42  A    between atoms: _92  and  _95
REMARK   43  A    between atoms: _95  and  _96
REMARK   44  A    between atoms: _96  and  _97
REMARK   45  A    between atoms: _97  and  _98
REMARK   46  A    between atoms: _98  and  _99
REMARK   47  A    between atoms: _104  and  _105
REMARK   48  A    between atoms: _110  and  _112
REMARK   49  A    between atoms: _112  and  _113
REMARK   50  A    between atoms: _115  and  _117
REMARK   51  A    between atoms: _117  and  _118
REMARK   52  A    between atoms: _117  and  _120
REMARK   53  A    between atoms: _120  and  _121
REMARK   54  A    between atoms: _127  and  _129
REMARK   55  A    between atoms: _129  and  _130
REMARK   56  A    between atoms: _129  and  _132
REMARK   57  A    between atoms: _132  and  _133
REMARK   58  A    between atoms: _136  and  _138
REMARK   59  A    between atoms: _138  and  _139
REMARK   60  A    between atoms: _142  and  _144
REMARK   61  A    between atoms: _144  and  _145
REMARK   62  A    between atoms: _147  and  _149
REMARK   63  A    between atoms: _149  and  _150
REMARK   64  A    between atoms: _149  and  _152
REMARK   65  A    between atoms: _152  and  _153
REMARK   66  A    between atoms: _153  and  _154
REMARK   67  A    between atoms: _156  and  _158
REMARK   68  A    between atoms: _158  and  _159
REMARK   69  A    between atoms: _158  and  _161
REMARK   70  A    between atoms: _161  and  _162
REMARK   71  A    between atoms: _162  and  _163
REMARK   72  A    between atoms: _163  and  _164
REMARK   73  A    between atoms: _173  and  _175
REMARK   74  A    between atoms: _175  and  _176
REMARK   75  A    between atoms: _175  and  _178
REMARK   76  A    between atoms: _178  and  _179
REMARK   77  A    between atoms: _179  and  _180
REMARK   78  A    between atoms: _183  and  _185
REMARK   79  A    between atoms: _185  and  _186
REMARK   80  A    between atoms: _185  and  _188
REMARK   81  A    between atoms: _188  and  _189
REMARK   82  A    between atoms: _192  and  _194
REMARK   83  A    between atoms: _194  and  _195
REMARK   84  A    between atoms: _194  and  _197
REMARK   85  A    between atoms: _197  and  _198
REMARK   86  A    between atoms: _198  and  _199
REMARK   87  A    between atoms: _201  and  _203
REMARK   88  A    between atoms: _203  and  _204
REMARK   89  A    between atoms: _206  and  _208
REMARK   90  A    between atoms: _208  and  _209
REMARK   91  A    between atoms: _211  and  _213
REMARK   92  A    between atoms: _213  and  _214
REMARK   93  A    between atoms: _217  and  _219
REMARK   94  A    between atoms: _219  and  _220
REMARK   95  A    between atoms: _219  and  _222
REMARK   96  A    between atoms: _222  and  _223
REMARK   97  A    between atoms: _225  and  _227
REMARK   98  A    between atoms: _227  and  _228
REMARK   99  A    between atoms: _227  and  _230
REMARK  100  A    between atoms: _233  and  _235
REMARK  101  A    between atoms: _235  and  _236
REMARK  102  A    between atoms: _235  and  _238
REMARK  103  A    between atoms: _238  and  _239
REMARK  104  A    between atoms: _239  and  _240
REMARK  105  A    between atoms: _245  and  _247
REMARK  106  A    between atoms: _247  and  _248
REMARK  107  A    between atoms: _250  and  _252
REMARK  108  A    between atoms: _252  and  _253
REMARK  109  A    between atoms: _252  and  _255
REMARK  110  A    between atoms: _255  and  _256
REMARK  111  A    between atoms: _256  and  _257
REMARK  112  A    between atoms: _262  and  _264
REMARK  113  A    between atoms: _264  and  _265
REMARK  114  A    between atoms: _264  and  _267
REMARK  115  A    between atoms: _267  and  _268
REMARK  116  A    between atoms: _271  and  _273
REMARK  117  A    between atoms: _273  and  _274
REMARK  118  A    between atoms: _273  and  _276
REMARK  119  A    between atoms: _276  and  _277
REMARK  120  A    between atoms: _277  and  _278
REMARK  121  A    between atoms: _281  and  _283
REMARK  122  A    between atoms: _283  and  _284
REMARK  123  A    between atoms: _283  and  _286
REMARK  124  A    between atoms: _286  and  _287
REMARK  125  A    between atoms: _289  and  _291
REMARK  126  A    between atoms: _291  and  _292
REMARK  127  A    between atoms: _291  and  _294
REMARK  128  A    between atoms: _294  and  _295
REMARK  129  A    between atoms: _298  and  _300
REMARK  130  A    between atoms: _300  and  _301
REMARK  131  A    between atoms: _303  and  _305
REMARK  132  A    between atoms: _305  and  _306
REMARK  133  A    between atoms: _308  and  _310
REMARK  134  A    between atoms: _310  and  _311
REMARK  135  A    between atoms: _310  and  _313
REMARK  136  A    between atoms: _313  and  _314
REMARK  137  A    between atoms: _317  and  _319
REMARK  138  A    between atoms: _319  and  _320
REMARK  139  A    between atoms: _319  and  _322
REMARK  140  A    between atoms: _322  and  _323
REMARK  141  A    between atoms: _325  and  _327
REMARK  142  A    between atoms: _327  and  _328
REMARK  143  A    between atoms: _327  and  _330
REMARK  144  A    between atoms: _330  and  _331
REMARK  145  A    between atoms: _336  and  _338
REMARK  146  A    between atoms: _338  and  _339
REMARK  147  A    between atoms: _338  and  _341
REMARK  148  A    between atoms: _341  and  _342
REMARK  149  A    between atoms: _345  and  _347
REMARK  150  A    between atoms: _347  and  _348
REMARK  151  A    between atoms: _351  and  _353
REMARK  152  A    between atoms: _353  and  _354
REMARK  153  A    between atoms: _353  and  _356
REMARK  154  A    between atoms: _356  and  _357
REMARK  155  A    between atoms: _359  and  _361
REMARK  156  A    between atoms: _361  and  _362
REMARK  157  A    between atoms: _361  and  _364
REMARK  158  A    between atoms: _364  and  _365
REMARK  159  A    between atoms: _367  and  _369
REMARK  160  A    between atoms: _369  and  _370
REMARK  161  A    between atoms: _369  and  _372
REMARK  162  A    between atoms: _372  and  _373
REMARK  163  A    between atoms: _373  and  _374
REMARK  164  A    between atoms: _379  and  _381
REMARK  165  A    between atoms: _381  and  _382
REMARK  166  A    between atoms: _381  and  _384
REMARK  167  A    between atoms: _384  and  _385
REMARK  168  A    between atoms: _388  and  _390
REMARK  169  A    between atoms: _390  and  _391
REMARK  170  A    between atoms: _390  and  _393
REMARK  171  A    between atoms: _393  and  _394
REMARK  172  A    between atoms: _400  and  _402
REMARK  173  A    between atoms: _402  and  _403
REMARK  174  A    between atoms: _402  and  _405
REMARK  175  A    between atoms: _405  and  _406
REMARK  176  A    between atoms: _409  and  _411
REMARK  177  A    between atoms: _411  and  _412
REMARK  178  A    between atoms: _411  and  _414
REMARK  179  A    between atoms: _414  and  _415
REMARK  180  A    between atoms: _418  and  _420
REMARK  181  A    between atoms: _420  and  _421
REMARK  182  A    between atoms: _420  and  _423
REMARK  183  A    between atoms: _423  and  _424
REMARK  184  A    between atoms: _424  and  _425
REMARK  185  A    between atoms: _428  and  _430
REMARK  186  A    between atoms: _430  and  _431
REMARK  187  A    between atoms: _430  and  _433
REMARK  188  A    between atoms: _433  and  _434
REMARK  189  A    between atoms: _439  and  _440
REMARK  190  A    between atoms: _442  and  _444
REMARK  191  A    between atoms: _444  and  _445
REMARK  192  A    between atoms: _444  and  _447
REMARK  193  A    between atoms: _447  and  _448
REMARK  194  A    between atoms: _451  and  _453
REMARK  195  A    between atoms: _453  and  _454
REMARK  196  A    between atoms: _453  and  _456
REMARK  197  A    between atoms: _456  and  _457
REMARK  198  A    between atoms: _457  and  _458
REMARK  199  A    between atoms: _463  and  _465
REMARK  200  A    between atoms: _465  and  _466
REMARK  201  A    between atoms: _465  and  _468
REMARK  202  A    between atoms: _468  and  _469
REMARK  203  A    between atoms: _474  and  _475
REMARK  204  A    between atoms: _477  and  _479
REMARK  205  A    between atoms: _479  and  _480
REMARK  206  A    between atoms: _479  and  _482
REMARK  207  A    between atoms: _482  and  _483
REMARK  208  A    between atoms: _486  and  _488
REMARK  209  A    between atoms: _488  and  _489
REMARK  210  A    between atoms: _488  and  _491
REMARK  211  A    between atoms: _491  and  _492
REMARK  212  A    between atoms: _497  and  _498
REMARK  213  A    between atoms: _500  and  _502
REMARK  214  A    between atoms: _502  and  _503
REMARK  215  A    between atoms: _502  and  _505
REMARK  216  A    between atoms: _505  and  _506
REMARK  217  A    between atoms: _511  and  _512
REMARK  218  A    between atoms: _515  and  _516
REMARK  219  A    between atoms: _521  and  _523
REMARK  220  A    between atoms: _523  and  _524
REMARK  221  A    between atoms: _523  and  _526
REMARK  222  A    between atoms: _526  and  _527
REMARK  223  A    between atoms: _530  and  _532
REMARK  224  A    between atoms: _532  and  _533
REMARK  225  A    between atoms: _532  and  _535
REMARK  226  A    between atoms: _535  and  _536
REMARK                            x       y       z     vdW  Elec       q    Type
REMARK                         _______ _______ _______ _____ _____    ______ ____
ROOT
ATOM      1  O   HOH     1      26.827  41.434  33.020  0.00  0.00    +0.000 OA
ENDROOT
TORSDOF 0
REMARK  Name = ../refined-set-2016/3aaq/3aaq_pocket.pdb
REMARK  226 active torsions:
REMARK  status: ('A' for Active; 'I' for Inactive)
REMARK    1  A    between atoms: _1  and  _3
REMARK    2  A    between atoms: _3  and  _4
REMARK    3  A    between atoms: _3  and  _6
REMARK    4  A    between atoms: _6  and  _7
REMARK    5  A    between atoms: _10  and  _12
REMARK    6  A    between atoms: _12  and  _13
REMARK    7  A    between atoms: _16  and  _18
REMARK    8  A    between atoms: _18  and  _19
REMARK    9  A    between atoms: _21  and  _23
REMARK   10  A    between atoms: _23  and  _24
REMARK   11  A    between atoms: _23  and  _26
REMARK   12  A    between atoms: _26  and  _27
REMARK   13  A    between atoms: _29  and  _31
REMARK   14  A    between atoms: _31  and  _32
REMARK   15  A    between atoms: _31  and  _34
REMARK   16  A    between atoms: _34  and  _35
REMARK   17  A    between atoms: _38  and  _40
REMARK   18  A    between atoms: _40  and  _41
REMARK   19  A    between atoms: _43  and  _45
REMARK   20  A    between atoms: _45  and  _46
REMARK   21  A    between atoms: _45  and  _48
REMARK   22  A    between atoms: _48  and  _49
REMARK   23  A    between atoms: _51  and  _53
REMARK   24  A    between atoms: _53  and  _54
REMARK   25  A    between atoms: _53  and  _56
REMARK   26  A    between atoms: _56  and  _57
REMARK   27  A    between atoms: _57  and  _58
REMARK   28  A    between atoms: _58  and  _59
REMARK   29  A    between atoms: _68  and  _70
REMARK   30  A    between atoms: _70  and  _71
REMARK   31  A    between atoms: _70  and  _73
REMARK   32  A    between atoms: _73  and  _74
REMARK   33  A    between atoms: _74  and  _75
REMARK   34  A    between atoms: _75  and  _76
REMARK   35  A    between atoms: _76  and  _77
REMARK   36  A    between atoms: _81  and  _83
REMARK   37  A    between atoms: _83  and  _84
REMARK   38  A    between atoms: _83  and  _86
REMARK   39  A    between atoms: _86  and  _87
REMARK   40  A    between atoms: _90  and  _92
REMARK   41  A    between atoms: _92  and  _93
REMARK   42  A    between atoms: _92  and  _95
REMARK   43  A    between atoms: _95  and  _96
REMARK   44  A    between atoms: _96  and  _97
REMARK   45  A    between atoms: _97  and  _98
REMARK   46  A    between atoms: _98  and  _99
REMARK   47  A    between atoms: _104  and  _105
REMARK   48  A    between atoms: _110  and  _112
REMARK   49  A    between atoms: _112  and  _113
REMARK   50  A    between atoms: _115  and  _117
REMARK   51  A    between atoms: _117  and  _118
REMARK   52  A    between atoms: _117  and  _120
REMARK   53  A    between atoms: _120  and  _121
REMARK   54  A    between atoms: _127  and  _129
REMARK   55  A    between atoms: _129  and  _130
REMARK   56  A    between atoms: _129  and  _132
REMARK   57  A    between atoms: _132  and  _133
REMARK   58  A    between atoms: _136  and  _138
REMARK   59  A    between atoms: _138  and  _139
REMARK   60  A    between atoms: _142  and  _144
REMARK   61  A    between atoms: _144  and  _145
REMARK   62  A    between atoms: _147  and  _149
REMARK   63  A    between atoms: _149  and  _150
REMARK   64  A    between atoms: _149  and  _152
REMARK   65  A    between atoms: _152  and  _153
REMARK   66  A    between atoms: _153  and  _154
REMARK   67  A    between atoms: _156  and  _158
REMARK   68  A    between atoms: _158  and  _159
REMARK   69  A    between atoms: _158  and  _161
REMARK   70  A    between atoms: _161  and  _162
REMARK   71  A    between atoms: _162  and  _163
REMARK   72  A    between atoms: _163  and  _164
REMARK   73  A    between atoms: _173  and  _175
REMARK   74  A    between atoms: _175  and  _176
REMARK   75  A    between atoms: _175  and  _178
REMARK   76  A    between atoms: _178  and  _179
REMARK   77  A    between atoms: _179  and  _180
REMARK   78  A    between atoms: _183  and  _185
REMARK   79  A    between atoms: _185  and  _186
REMARK   80  A    between atoms: _185  and  _188
REMARK   81  A    between atoms: _188  and  _189
REMARK   82  A    between atoms: _192  and  _194
REMARK   83  A    between atoms: _194  and  _195
REMARK   84  A    between atoms: _194  and  _197
REMARK   85  A    between atoms: _197  and  _198
REMARK   86  A    between atoms: _198  and  _199
REMARK   87  A    between atoms: _201  and  _203
REMARK   88  A    between atoms: _203  and  _204
REMARK   89  A    between atoms: _206  and  _208
REMARK   90  A    between atoms: _208  and  _209
REMARK   91  A    between atoms: _211  and  _213
REMARK   92  A    between atoms: _213  and  _214
REMARK   93  A    between atoms: _217  and  _219
REMARK   94  A    between atoms: _219  and  _220
REMARK   95  A    between atoms: _219  and  _222
REMARK   96  A    between atoms: _222  and  _223
REMARK   97  A    between atoms: _225  and  _227
REMARK   98  A    between atoms: _227  and  _228
REMARK   99  A    between atoms: _227  and  _230
REMARK  100  A    between atoms: _233  and  _235
REMARK  101  A    between atoms: _235  and  _236
REMARK  102  A    between atoms: _235  and  _238
REMARK  103  A    between atoms: _238  and  _239
REMARK  104  A    between atoms: _239  and  _240
REMARK  105  A    between atoms: _245  and  _247
REMARK  106  A    between atoms: _247  and  _248
REMARK  107  A    between atoms: _250  and  _252
REMARK  108  A    between atoms: _252  and  _253
REMARK  109  A    between atoms: _252  and  _255
REMARK  110  A    between atoms: _255  and  _256
REMARK  111  A    between atoms: _256  and  _257
REMARK  112  A    between atoms: _262  and  _264
REMARK  113  A    between atoms: _264  and  _265
REMARK  114  A    between atoms: _264  and  _267
REMARK  115  A    between atoms: _267  and  _268
REMARK  116  A    between atoms: _271  and  _273
REMARK  117  A    between atoms: _273  and  _274
REMARK  118  A    between atoms: _273  and  _276
REMARK  119  A    between atoms: _276  and  _277
REMARK  120  A    between atoms: _277  and  _278
REMARK  121  A    between atoms: _281  and  _283
REMARK  122  A    between atoms: _283  and  _284
REMARK  123  A    between atoms: _283  and  _286
REMARK  124  A    between atoms: _286  and  _287
REMARK  125  A    between atoms: _289  and  _291
REMARK  126  A    between atoms: _291  and  _292
REMARK  127  A    between atoms: _291  and  _294
REMARK  128  A    between atoms: _294  and  _295
REMARK  129  A    between atoms: _298  and  _300
REMARK  130  A    between atoms: _300  and  _301
REMARK  131  A    between atoms: _303  and  _305
REMARK  132  A    between atoms: _305  and  _306
REMARK  133  A    between atoms: _308  and  _310
REMARK  134  A    between atoms: _310  and  _311
REMARK  135  A    between atoms: _310  and  _313
REMARK  136  A    between atoms: _313  and  _314
REMARK  137  A    between atoms: _317  and  _319
REMARK  138  A    between atoms: _319  and  _320
REMARK  139  A    between atoms: _319  and  _322
REMARK  140  A    between atoms: _322  and  _323
REMARK  141  A    between atoms: _325  and  _327
REMARK  142  A    between atoms: _327  and  _328
REMARK  143  A    between atoms: _327  and  _330
REMARK  144  A    between atoms: _330  and  _331
REMARK  145  A    between atoms: _336  and  _338
REMARK  146  A    between atoms: _338  and  _339
REMARK  147  A    between atoms: _338  and  _341
REMARK  148  A    between atoms: _341  and  _342
REMARK  149  A    between atoms: _345  and  _347
REMARK  150  A    between atoms: _347  and  _348
REMARK  151  A    between atoms: _351  and  _353
REMARK  152  A    between atoms: _353  and  _354
REMARK  153  A    between atoms: _353  and  _356
REMARK  154  A    between atoms: _356  and  _357
REMARK  155  A    between atoms: _359  and  _361
REMARK  156  A    between atoms: _361  and  _362
REMARK  157  A    between atoms: _361  and  _364
REMARK  158  A    between atoms: _364  and  _365
REMARK  159  A    between atoms: _367  and  _369
REMARK  160  A    between atoms: _369  and  _370
REMARK  161  A    between atoms: _369  and  _372
REMARK  162  A    between atoms: _372  and  _373
REMARK  163  A    between atoms: _373  and  _374
REMARK  164  A    between atoms: _379  and  _381
REMARK  165  A    between atoms: _381  and  _382
REMARK  166  A    between atoms: _381  and  _384
REMARK  167  A    between atoms: _384  and  _385
REMARK  168  A    between atoms: _388  and  _390
REMARK  169  A    between atoms: _390  and  _391
REMARK  170  A    between atoms: _390  and  _393
REMARK  171  A    between atoms: _393  and  _394
REMARK  172  A    between atoms: _400  and  _402
REMARK  173  A    between atoms: _402  and  _403
REMARK  174  A    between atoms: _402  and  _405
REMARK  175  A    between atoms: _405  and  _406
REMARK  176  A    between atoms: _409  and  _411
REMARK  177  A    between atoms: _411  and  _412
REMARK  178  A    between atoms: _411  and  _414
REMARK  179  A    between atoms: _414  and  _415
REMARK  180  A    between atoms: _418  and  _420
REMARK  181  A    between atoms: _420  and  _421
REMARK  182  A    between atoms: _420  and  _423
REMARK  183  A    between atoms: _423  and  _424
REMARK  184  A    between atoms: _424  and  _425
REMARK  185  A    between atoms: _428  and  _430
REMARK  186  A    between atoms: _430  and  _431
REMARK  187  A    between atoms: _430  and  _433
REMARK  188  A    between atoms: _433  and  _434
REMARK  189  A    between atoms: _439  and  _440
REMARK  190  A    between atoms: _442  and  _444
REMARK  191  A    between atoms: _444  and  _445
REMARK  192  A    between atoms: _444  and  _447
REMARK  193  A    between atoms: _447  and  _448
REMARK  194  A    between atoms: _451  and  _453
REMARK  195  A    between atoms: _453  and  _454
REMARK  196  A    between atoms: _453  and  _456
REMARK  197  A    between atoms: _456  and  _457
REMARK  198  A    between atoms: _457  and  _458
REMARK  199  A    between atoms: _463  and  _465
REMARK  200  A    between atoms: _465  and  _466
REMARK  201  A    between atoms: _465  and  _468
REMARK  202  A    between atoms: _468  and  _469
REMARK  203  A    between atoms: _474  and  _475
REMARK  204  A    between atoms: _477  and  _479
REMARK  205  A    between atoms: _479  and  _480
REMARK  206  A    between atoms: _479  and  _482
REMARK  207  A    between atoms: _482  and  _483
REMARK  208  A    between atoms: _486  and  _488
REMARK  209  A    between atoms: _488  and  _489
REMARK  210  A    between atoms: _488  and  _491
REMARK  211  A    between atoms: _491  and  _492
REMARK  212  A    between atoms: _497  and  _498
REMARK  213  A    between atoms: _500  and  _502
REMARK  214  A    between atoms: _502  and  _503
REMARK  215  A    between atoms: _502  and  _505
REMARK  216  A    between atoms: _505  and  _506
REMARK  217  A    between atoms: _511  and  _512
REMARK  218  A    between atoms: _515  and  _516
REMARK  219  A    between atoms: _521  and  _523
REMARK  220  A    between atoms: _523  and  _524
REMARK  221  A    between atoms: _523  and  _526
REMARK  222  A    between atoms: _526  and  _527
REMARK  223  A    between atoms: _530  and  _532
REMARK  224  A    between atoms: _532  and  _533
REMARK  225  A    between atoms: _532  and  _535
REMARK  226  A    between atoms: _535  and  _536
REMARK                            x       y       z     vdW  Elec       q    Type
REMARK                         _______ _______ _______ _____ _____    ______ ____
ROOT
ATOM      1  O   HOH     1      25.715  36.161  23.457  0.00  0.00    +0.000 OA
ENDROOT
TORSDOF 0
REMARK  Name = ../refined-set-2016/3aaq/3aaq_pocket.pdb
REMARK  226 active torsions:
REMARK  status: ('A' for Active; 'I' for Inactive)
REMARK    1  A    between atoms: _1  and  _3
REMARK    2  A    between atoms: _3  and  _4
REMARK    3  A    between atoms: _3  and  _6
REMARK    4  A    between atoms: _6  and  _7
REMARK    5  A    between atoms: _10  and  _12
REMARK    6  A    between atoms: _12  and  _13
REMARK    7  A    between atoms: _16  and  _18
REMARK    8  A    between atoms: _18  and  _19
REMARK    9  A    between atoms: _21  and  _23
REMARK   10  A    between atoms: _23  and  _24
REMARK   11  A    between atoms: _23  and  _26
REMARK   12  A    between atoms: _26  and  _27
REMARK   13  A    between atoms: _29  and  _31
REMARK   14  A    between atoms: _31  and  _32
REMARK   15  A    between atoms: _31  and  _34
REMARK   16  A    between atoms: _34  and  _35
REMARK   17  A    between atoms: _38  and  _40
REMARK   18  A    between atoms: _40  and  _41
REMARK   19  A    between atoms: _43  and  _45
REMARK   20  A    between atoms: _45  and  _46
REMARK   21  A    between atoms: _45  and  _48
REMARK   22  A    between atoms: _48  and  _49
REMARK   23  A    between atoms: _51  and  _53
REMARK   24  A    between atoms: _53  and  _54
REMARK   25  A    between atoms: _53  and  _56
REMARK   26  A    between atoms: _56  and  _57
REMARK   27  A    between atoms: _57  and  _58
REMARK   28  A    between atoms: _58  and  _59
REMARK   29  A    between atoms: _68  and  _70
REMARK   30  A    between atoms: _70  and  _71
REMARK   31  A    between atoms: _70  and  _73
REMARK   32  A    between atoms: _73  and  _74
REMARK   33  A    between atoms: _74  and  _75
REMARK   34  A    between atoms: _75  and  _76
REMARK   35  A    between atoms: _76  and  _77
REMARK   36  A    between atoms: _81  and  _83
REMARK   37  A    between atoms: _83  and  _84
REMARK   38  A    between atoms: _83  and  _86
REMARK   39  A    between atoms: _86  and  _87
REMARK   40  A    between atoms: _90  and  _92
REMARK   41  A    between atoms: _92  and  _93
REMARK   42  A    between atoms: _92  and  _95
REMARK   43  A    between atoms: _95  and  _96
REMARK   44  A    between atoms: _96  and  _97
REMARK   45  A    between atoms: _97  and  _98
REMARK   46  A    between atoms: _98  and  _99
REMARK   47  A    between atoms: _104  and  _105
REMARK   48  A    between atoms: _110  and  _112
REMARK   49  A    between atoms: _112  and  _113
REMARK   50  A    between atoms: _115  and  _117
REMARK   51  A    between atoms: _117  and  _118
REMARK   52  A    between atoms: _117  and  _120
REMARK   53  A    between atoms: _120  and  _121
REMARK   54  A    between atoms: _127  and  _129
REMARK   55  A    between atoms: _129  and  _130
REMARK   56  A    between atoms: _129  and  _132
REMARK   57  A    between atoms: _132  and  _133
REMARK   58  A    between atoms: _136  and  _138
REMARK   59  A    between atoms: _138  and  _139
REMARK   60  A    between atoms: _142  and  _144
REMARK   61  A    between atoms: _144  and  _145
REMARK   62  A    between atoms: _147  and  _149
REMARK   63  A    between atoms: _149  and  _150
REMARK   64  A    between atoms: _149  and  _152
REMARK   65  A    between atoms: _152  and  _153
REMARK   66  A    between atoms: _153  and  _154
REMARK   67  A    between atoms: _156  and  _158
REMARK   68  A    between atoms: _158  and  _159
REMARK   69  A    between atoms: _158  and  _161
REMARK   70  A    between atoms: _161  and  _162
REMARK   71  A    between atoms: _162  and  _163
REMARK   72  A    between atoms: _163  and  _164
REMARK   73  A    between atoms: _173  and  _175
REMARK   74  A    between atoms: _175  and  _176
REMARK   75  A    between atoms: _175  and  _178
REMARK   76  A    between atoms: _178  and  _179
REMARK   77  A    between atoms: _179  and  _180
REMARK   78  A    between atoms: _183  and  _185
REMARK   79  A    between atoms: _185  and  _186
REMARK   80  A    between atoms: _185  and  _188
REMARK   81  A    between atoms: _188  and  _189
REMARK   82  A    between atoms: _192  and  _194
REMARK   83  A    between atoms: _194  and  _195
REMARK   84  A    between atoms: _194  and  _197
REMARK   85  A    between atoms: _197  and  _198
REMARK   86  A    between atoms: _198  and  _199
REMARK   87  A    between atoms: _201  and  _203
REMARK   88  A    between atoms: _203  and  _204
REMARK   89  A    between atoms: _206  and  _208
REMARK   90  A    between atoms: _208  and  _209
REMARK   91  A    between atoms: _211  and  _213
REMARK   92  A    between atoms: _213  and  _214
REMARK   93  A    between atoms: _217  and  _219
REMARK   94  A    between atoms: _219  and  _220
REMARK   95  A    between atoms: _219  and  _222
REMARK   96  A    between atoms: _222  and  _223
REMARK   97  A    between atoms: _225  and  _227
REMARK   98  A    between atoms: _227  and  _228
REMARK   99  A    between atoms: _227  and  _230
REMARK  100  A    between atoms: _233  and  _235
REMARK  101  A    between atoms: _235  and  _236
REMARK  102  A    between atoms: _235  and  _238
REMARK  103  A    between atoms: _238  and  _239
REMARK  104  A    between atoms: _239  and  _240
REMARK  105  A    between atoms: _245  and  _247
REMARK  106  A    between atoms: _247  and  _248
REMARK  107  A    between atoms: _250  and  _252
REMARK  108  A    between atoms: _252  and  _253
REMARK  109  A    between atoms: _252  and  _255
REMARK  110  A    between atoms: _255  and  _256
REMARK  111  A    between atoms: _256  and  _257
REMARK  112  A    between atoms: _262  and  _264
REMARK  113  A    between atoms: _264  and  _265
REMARK  114  A    between atoms: _264  and  _267
REMARK  115  A    between atoms: _267  and  _268
REMARK  116  A    between atoms: _271  and  _273
REMARK  117  A    between atoms: _273  and  _274
REMARK  118  A    between atoms: _273  and  _276
REMARK  119  A    between atoms: _276  and  _277
REMARK  120  A    between atoms: _277  and  _278
REMARK  121  A    between atoms: _281  and  _283
REMARK  122  A    between atoms: _283  and  _284
REMARK  123  A    between atoms: _283  and  _286
REMARK  124  A    between atoms: _286  and  _287
REMARK  125  A    between atoms: _289  and  _291
REMARK  126  A    between atoms: _291  and  _292
REMARK  127  A    between atoms: _291  and  _294
REMARK  128  A    between atoms: _294  and  _295
REMARK  129  A    between atoms: _298  and  _300
REMARK  130  A    between atoms: _300  and  _301
REMARK  131  A    between atoms: _303  and  _305
REMARK  132  A    between atoms: _305  and  _306
REMARK  133  A    between atoms: _308  and  _310
REMARK  134  A    between atoms: _310  and  _311
REMARK  135  A    between atoms: _310  and  _313
REMARK  136  A    between atoms: _313  and  _314
REMARK  137  A    between atoms: _317  and  _319
REMARK  138  A    between atoms: _319  and  _320
REMARK  139  A    between atoms: _319  and  _322
REMARK  140  A    between atoms: _322  and  _323
REMARK  141  A    between atoms: _325  and  _327
REMARK  142  A    between atoms: _327  and  _328
REMARK  143  A    between atoms: _327  and  _330
REMARK  144  A    between atoms: _330  and  _331
REMARK  145  A    between atoms: _336  and  _338
REMARK  146  A    between atoms: _338  and  _339
REMARK  147  A    between atoms: _338  and  _341
REMARK  148  A    between atoms: _341  and  _342
REMARK  149  A    between atoms: _345  and  _347
REMARK  150  A    between atoms: _347  and  _348
REMARK  151  A    between atoms: _351  and  _353
REMARK  152  A    between atoms: _353  and  _354
REMARK  153  A    between atoms: _353  and  _356
REMARK  154  A    between atoms: _356  and  _357
REMARK  155  A    between atoms: _359  and  _361
REMARK  156  A    between atoms: _361  and  _362
REMARK  157  A    between atoms: _361  and  _364
REMARK  158  A    between atoms: _364  and  _365
REMARK  159  A    between atoms: _367  and  _369
REMARK  160  A    between atoms: _369  and  _370
REMARK  161  A    between atoms: _369  and  _372
REMARK  162  A    between atoms: _372  and  _373
REMARK  163  A    between atoms: _373  and  _374
REMARK  164  A    between atoms: _379  and  _381
REMARK  165  A    between atoms: _381  and  _382
REMARK  166  A    between atoms: _381  and  _384
REMARK  167  A    between atoms: _384  and  _385
REMARK  168  A    between atoms: _388  and  _390
REMARK  169  A    between atoms: _390  and  _391
REMARK  170  A    between atoms: _390  and  _393
REMARK  171  A    between atoms: _393  and  _394
REMARK  172  A    between atoms: _400  and  _402
REMARK  173  A    between atoms: _402  and  _403
REMARK  174  A    between atoms: _402  and  _405
REMARK  175  A    between atoms: _405  and  _406
REMARK  176  A    between atoms: _409  and  _411
REMARK  177  A    between atoms: _411  and  _412
REMARK  178  A    between atoms: _411  and  _414
REMARK  179  A    between atoms: _414  and  _415
REMARK  180  A    between atoms: _418  and  _420
REMARK  181  A    between atoms: _420  and  _421
REMARK  182  A    between atoms: _420  and  _423
REMARK  183  A    between atoms: _423  and  _424
REMARK  184  A    between atoms: _424  and  _425
REMARK  185  A    between atoms: _428  and  _430
REMARK  186  A    between atoms: _430  and  _431
REMARK  187  A    between atoms: _430  and  _433
REMARK  188  A    between atoms: _433  and  _434
REMARK  189  A    between atoms: _439  and  _440
REMARK  190  A    between atoms: _442  and  _444
REMARK  191  A    between atoms: _444  and  _445
REMARK  192  A    between atoms: _444  and  _447
REMARK  193  A    between atoms: _447  and  _448
REMARK  194  A    between atoms: _451  and  _453
REMARK  195  A    between atoms: _453  and  _454
REMARK  196  A    between atoms: _453  and  _456
REMARK  197  A    between atoms: _456  and  _457
REMARK  198  A    between atoms: _457  and  _458
REMARK  199  A    between atoms: _463  and  _465
REMARK  200  A    between atoms: _465  and  _466
REMARK  201  A    between atoms: _465  and  _468
REMARK  202  A    between atoms: _468  and  _469
REMARK  203  A    between atoms: _474  and  _475
REMARK  204  A    between atoms: _477  and  _479
REMARK  205  A    between atoms: _479  and  _480
REMARK  206  A    between atoms: _479  and  _482
REMARK  207  A    between atoms: _482  and  _483
REMARK  208  A    between atoms: _486  and  _488
REMARK  209  A    between atoms: _488  and  _489
REMARK  210  A    between atoms: _488  and  _491
REMARK  211  A    between atoms: _491  and  _492
REMARK  212  A    between atoms: _497  and  _498
REMARK  213  A    between atoms: _500  and  _502
REMARK  214  A    between atoms: _502  and  _503
REMARK  215  A    between atoms: _502  and  _505
REMARK  216  A    between atoms: _505  and  _506
REMARK  217  A    between atoms: _511  and  _512
REMARK  218  A    between atoms: _515  and  _516
REMARK  219  A    between atoms: _521  and  _523
REMARK  220  A    between atoms: _523  and  _524
REMARK  221  A    between atoms: _523  and  _526
REMARK  222  A    between atoms: _526  and  _527
REMARK  223  A    between atoms: _530  and  _532
REMARK  224  A    between atoms: _532  and  _533
REMARK  225  A    between atoms: _532  and  _535
REMARK  226  A    between atoms: _535  and  _536
REMARK                            x       y       z     vdW  Elec       q    Type
REMARK                         _______ _______ _______ _____ _____    ______ ____
ROOT
ATOM      1  O   HOH     1      24.868  33.957  31.757  0.00  0.00    +0.000 OA
ENDROOT
TORSDOF 0
REMARK  Name = ../refined-set-2016/3aaq/3aaq_pocket.pdb
REMARK  226 active torsions:
REMARK  status: ('A' for Active; 'I' for Inactive)
REMARK    1  A    between atoms: _1  and  _3
REMARK    2  A    between atoms: _3  and  _4
REMARK    3  A    between atoms: _3  and  _6
REMARK    4  A    between atoms: _6  and  _7
REMARK    5  A    between atoms: _10  and  _12
REMARK    6  A    between atoms: _12  and  _13
REMARK    7  A    between atoms: _16  and  _18
REMARK    8  A    between atoms: _18  and  _19
REMARK    9  A    between atoms: _21  and  _23
REMARK   10  A    between atoms: _23  and  _24
REMARK   11  A    between atoms: _23  and  _26
REMARK   12  A    between atoms: _26  and  _27
REMARK   13  A    between atoms: _29  and  _31
REMARK   14  A    between atoms: _31  and  _32
REMARK   15  A    between atoms: _31  and  _34
REMARK   16  A    between atoms: _34  and  _35
REMARK   17  A    between atoms: _38  and  _40
REMARK   18  A    between atoms: _40  and  _41
REMARK   19  A    between atoms: _43  and  _45
REMARK   20  A    between atoms: _45  and  _46
REMARK   21  A    between atoms: _45  and  _48
REMARK   22  A    between atoms: _48  and  _49
REMARK   23  A    between atoms: _51  and  _53
REMARK   24  A    between atoms: _53  and  _54
REMARK   25  A    between atoms: _53  and  _56
REMARK   26  A    between atoms: _56  and  _57
REMARK   27  A    between atoms: _57  and  _58
REMARK   28  A    between atoms: _58  and  _59
REMARK   29  A    between atoms: _68  and  _70
REMARK   30  A    between atoms: _70  and  _71
REMARK   31  A    between atoms: _70  and  _73
REMARK   32  A    between atoms: _73  and  _74
REMARK   33  A    between atoms: _74  and  _75
REMARK   34  A    between atoms: _75  and  _76
REMARK   35  A    between atoms: _76  and  _77
REMARK   36  A    between atoms: _81  and  _83
REMARK   37  A    between atoms: _83  and  _84
REMARK   38  A    between atoms: _83  and  _86
REMARK   39  A    between atoms: _86  and  _87
REMARK   40  A    between atoms: _90  and  _92
REMARK   41  A    between atoms: _92  and  _93
REMARK   42  A    between atoms: _92  and  _95
REMARK   43  A    between atoms: _95  and  _96
REMARK   44  A    between atoms: _96  and  _97
REMARK   45  A    between atoms: _97  and  _98
REMARK   46  A    between atoms: _98  and  _99
REMARK   47  A    between atoms: _104  and  _105
REMARK   48  A    between atoms: _110  and  _112
REMARK   49  A    between atoms: _112  and  _113
REMARK   50  A    between atoms: _115  and  _117
REMARK   51  A    between atoms: _117  and  _118
REMARK   52  A    between atoms: _117  and  _120
REMARK   53  A    between atoms: _120  and  _121
REMARK   54  A    between atoms: _127  and  _129
REMARK   55  A    between atoms: _129  and  _130
REMARK   56  A    between atoms: _129  and  _132
REMARK   57  A    between atoms: _132  and  _133
REMARK   58  A    between atoms: _136  and  _138
REMARK   59  A    between atoms: _138  and  _139
REMARK   60  A    between atoms: _142  and  _144
REMARK   61  A    between atoms: _144  and  _145
REMARK   62  A    between atoms: _147  and  _149
REMARK   63  A    between atoms: _149  and  _150
REMARK   64  A    between atoms: _149  and  _152
REMARK   65  A    between atoms: _152  and  _153
REMARK   66  A    between atoms: _153  and  _154
REMARK   67  A    between atoms: _156  and  _158
REMARK   68  A    between atoms: _158  and  _159
REMARK   69  A    between atoms: _158  and  _161
REMARK   70  A    between atoms: _161  and  _162
REMARK   71  A    between atoms: _162  and  _163
REMARK   72  A    between atoms: _163  and  _164
REMARK   73  A    between atoms: _173  and  _175
REMARK   74  A    between atoms: _175  and  _176
REMARK   75  A    between atoms: _175  and  _178
REMARK   76  A    between atoms: _178  and  _179
REMARK   77  A    between atoms: _179  and  _180
REMARK   78  A    between atoms: _183  and  _185
REMARK   79  A    between atoms: _185  and  _186
REMARK   80  A    between atoms: _185  and  _188
REMARK   81  A    between atoms: _188  and  _189
REMARK   82  A    between atoms: _192  and  _194
REMARK   83  A    between atoms: _194  and  _195
REMARK   84  A    between atoms: _194  and  _197
REMARK   85  A    between atoms: _197  and  _198
REMARK   86  A    between atoms: _198  and  _199
REMARK   87  A    between atoms: _201  and  _203
REMARK   88  A    between atoms: _203  and  _204
REMARK   89  A    between atoms: _206  and  _208
REMARK   90  A    between atoms: _208  and  _209
REMARK   91  A    between atoms: _211  and  _213
REMARK   92  A    between atoms: _213  and  _214
REMARK   93  A    between atoms: _217  and  _219
REMARK   94  A    between atoms: _219  and  _220
REMARK   95  A    between atoms: _219  and  _222
REMARK   96  A    between atoms: _222  and  _223
REMARK   97  A    between atoms: _225  and  _227
REMARK   98  A    between atoms: _227  and  _228
REMARK   99  A    between atoms: _227  and  _230
REMARK  100  A    between atoms: _233  and  _235
REMARK  101  A    between atoms: _235  and  _236
REMARK  102  A    between atoms: _235  and  _238
REMARK  103  A    between atoms: _238  and  _239
REMARK  104  A    between atoms: _239  and  _240
REMARK  105  A    between atoms: _245  and  _247
REMARK  106  A    between atoms: _247  and  _248
REMARK  107  A    between atoms: _250  and  _252
REMARK  108  A    between atoms: _252  and  _253
REMARK  109  A    between atoms: _252  and  _255
REMARK  110  A    between atoms: _255  and  _256
REMARK  111  A    between atoms: _256  and  _257
REMARK  112  A    between atoms: _262  and  _264
REMARK  113  A    between atoms: _264  and  _265
REMARK  114  A    between atoms: _264  and  _267
REMARK  115  A    between atoms: _267  and  _268
REMARK  116  A    between atoms: _271  and  _273
REMARK  117  A    between atoms: _273  and  _274
REMARK  118  A    between atoms: _273  and  _276
REMARK  119  A    between atoms: _276  and  _277
REMARK  120  A    between atoms: _277  and  _278
REMARK  121  A    between atoms: _281  and  _283
REMARK  122  A    between atoms: _283  and  _284
REMARK  123  A    between atoms: _283  and  _286
REMARK  124  A    between atoms: _286  and  _287
REMARK  125  A    between atoms: _289  and  _291
REMARK  126  A    between atoms: _291  and  _292
REMARK  127  A    between atoms: _291  and  _294
REMARK  128  A    between atoms: _294  and  _295
REMARK  129  A    between atoms: _298  and  _300
REMARK  130  A    between atoms: _300  and  _301
REMARK  131  A    between atoms: _303  and  _305
REMARK  132  A    between atoms: _305  and  _306
REMARK  133  A    between atoms: _308  and  _310
REMARK  134  A    between atoms: _310  and  _311
REMARK  135  A    between atoms: _310  and  _313
REMARK  136  A    between atoms: _313  and  _314
REMARK  137  A    between atoms: _317  and  _319
REMARK  138  A    between atoms: _319  and  _320
REMARK  139  A    between atoms: _319  and  _322
REMARK  140  A    between atoms: _322  and  _323
REMARK  141  A    between atoms: _325  and  _327
REMARK  142  A    between atoms: _327  and  _328
REMARK  143  A    between atoms: _327  and  _330
REMARK  144  A    between atoms: _330  and  _331
REMARK  145  A    between atoms: _336  and  _338
REMARK  146  A    between atoms: _338  and  _339
REMARK  147  A    between atoms: _338  and  _341
REMARK  148  A    between atoms: _341  and  _342
REMARK  149  A    between atoms: _345  and  _347
REMARK  150  A    between atoms: _347  and  _348
REMARK  151  A    between atoms: _351  and  _353
REMARK  152  A    between atoms: _353  and  _354
REMARK  153  A    between atoms: _353  and  _356
REMARK  154  A    between atoms: _356  and  _357
REMARK  155  A    between atoms: _359  and  _361
REMARK  156  A    between atoms: _361  and  _362
REMARK  157  A    between atoms: _361  and  _364
REMARK  158  A    between atoms: _364  and  _365
REMARK  159  A    between atoms: _367  and  _369
REMARK  160  A    between atoms: _369  and  _370
REMARK  161  A    between atoms: _369  and  _372
REMARK  162  A    between atoms: _372  and  _373
REMARK  163  A    between atoms: _373  and  _374
REMARK  164  A    between atoms: _379  and  _381
REMARK  165  A    between atoms: _381  and  _382
REMARK  166  A    between atoms: _381  and  _384
REMARK  167  A    between atoms: _384  and  _385
REMARK  168  A    between atoms: _388  and  _390
REMARK  169  A    between atoms: _390  and  _391
REMARK  170  A    between atoms: _390  and  _393
REMARK  171  A    between atoms: _393  and  _394
REMARK  172  A    between atoms: _400  and  _402
REMARK  173  A    between atoms: _402  and  _403
REMARK  174  A    between atoms: _402  and  _405
REMARK  175  A    between atoms: _405  and  _406
REMARK  176  A    between atoms: _409  and  _411
REMARK  177  A    between atoms: _411  and  _412
REMARK  178  A    between atoms: _411  and  _414
REMARK  179  A    between atoms: _414  and  _415
REMARK  180  A    between atoms: _418  and  _420
REMARK  181  A    between atoms: _420  and  _421
REMARK  182  A    between atoms: _420  and  _423
REMARK  183  A    between atoms: _423  and  _424
REMARK  184  A    between atoms: _424  and  _425
REMARK  185  A    between atoms: _428  and  _430
REMARK  186  A    between atoms: _430  and  _431
REMARK  187  A    between atoms: _430  and  _433
REMARK  188  A    between atoms: _433  and  _434
REMARK  189  A    between atoms: _439  and  _440
REMARK  190  A    between atoms: _442  and  _444
REMARK  191  A    between atoms: _444  and  _445
REMARK  192  A    between atoms: _444  and  _447
REMARK  193  A    between atoms: _447  and  _448
REMARK  194  A    between atoms: _451  and  _453
REMARK  195  A    between atoms: _453  and  _454
REMARK  196  A    between atoms: _453  and  _456
REMARK  197  A    between atoms: _456  and  _457
REMARK  198  A    between atoms: _457  and  _458
REMARK  199  A    between atoms: _463  and  _465
REMARK  200  A    between atoms: _465  and  _466
REMARK  201  A    between atoms: _465  and  _468
REMARK  202  A    between atoms: _468  and  _469
REMARK  203  A    between atoms: _474  and  _475
REMARK  204  A    between atoms: _477  and  _479
REMARK  205  A    between atoms: _479  and  _480
REMARK  206  A    between atoms: _479  and  _482
REMARK  207  A    between atoms: _482  and  _483
REMARK  208  A    between atoms: _486  and  _488
REMARK  209  A    between atoms: _488  and  _489
REMARK  210  A    between atoms: _488  and  _491
REMARK  211  A    between atoms: _491  and  _492
REMARK  212  A    between atoms: _497  and  _498
REMARK  213  A    between atoms: _500  and  _502
REMARK  214  A    between atoms: _502  and  _503
REMARK  215  A    between atoms: _502  and  _505
REMARK  216  A    between atoms: _505  and  _506
REMARK  217  A    between atoms: _511  and  _512
REMARK  218  A    between atoms: _515  and  _516
REMARK  219  A    between atoms: _521  and  _523
REMARK  220  A    between atoms: _523  and  _524
REMARK  221  A    between atoms: _523  and  _526
REMARK  222  A    between atoms: _526  and  _527
REMARK  223  A    between atoms: _530  and  _532
REMARK  224  A    between atoms: _532  and  _533
REMARK  225  A    between atoms: _532  and  _535
REMARK  226  A    between atoms: _535  and  _536
REMARK                            x       y       z     vdW  Elec       q    Type
REMARK                         _______ _______ _______ _____ _____    ______ ____
ROOT
ATOM      1  O   HOH     1      30.821  37.359  20.445  0.00  0.00    +0.000 OA
ENDROOT
TORSDOF 0
REMARK  Name = ../refined-set-2016/3aaq/3aaq_pocket.pdb
REMARK  226 active torsions:
REMARK  status: ('A' for Active; 'I' for Inactive)
REMARK    1  A    between atoms: _1  and  _3
REMARK    2  A    between atoms: _3  and  _4
REMARK    3  A    between atoms: _3  and  _6
REMARK    4  A    between atoms: _6  and  _7
REMARK    5  A    between atoms: _10  and  _12
REMARK    6  A    between atoms: _12  and  _13
REMARK    7  A    between atoms: _16  and  _18
REMARK    8  A    between atoms: _18  and  _19
REMARK    9  A    between atoms: _21  and  _23
REMARK   10  A    between atoms: _23  and  _24
REMARK   11  A    between atoms: _23  and  _26
REMARK   12  A    between atoms: _26  and  _27
REMARK   13  A    between atoms: _29  and  _31
REMARK   14  A    between atoms: _31  and  _32
REMARK   15  A    between atoms: _31  and  _34
REMARK   16  A    between atoms: _34  and  _35
REMARK   17  A    between atoms: _38  and  _40
REMARK   18  A    between atoms: _40  and  _41
REMARK   19  A    between atoms: _43  and  _45
REMARK   20  A    between atoms: _45  and  _46
REMARK   21  A    between atoms: _45  and  _48
REMARK   22  A    between atoms: _48  and  _49
REMARK   23  A    between atoms: _51  and  _53
REMARK   24  A    between atoms: _53  and  _54
REMARK   25  A    between atoms: _53  and  _56
REMARK   26  A    between atoms: _56  and  _57
REMARK   27  A    between atoms: _57  and  _58
REMARK   28  A    between atoms: _58  and  _59
REMARK   29  A    between atoms: _68  and  _70
REMARK   30  A    between atoms: _70  and  _71
REMARK   31  A    between atoms: _70  and  _73
REMARK   32  A    between atoms: _73  and  _74
REMARK   33  A    between atoms: _74  and  _75
REMARK   34  A    between atoms: _75  and  _76
REMARK   35  A    between atoms: _76  and  _77
REMARK   36  A    between atoms: _81  and  _83
REMARK   37  A    between atoms: _83  and  _84
REMARK   38  A    between atoms: _83  and  _86
REMARK   39  A    between atoms: _86  and  _87
REMARK   40  A    between atoms: _90  and  _92
REMARK   41  A    between atoms: _92  and  _93
REMARK   42  A    between atoms: _92  and  _95
REMARK   43  A    between atoms: _95  and  _96
REMARK   44  A    between atoms: _96  and  _97
REMARK   45  A    between atoms: _97  and  _98
REMARK   46  A    between atoms: _98  and  _99
REMARK   47  A    between atoms: _104  and  _105
REMARK   48  A    between atoms: _110  and  _112
REMARK   49  A    between atoms: _112  and  _113
REMARK   50  A    between atoms: _115  and  _117
REMARK   51  A    between atoms: _117  and  _118
REMARK   52  A    between atoms: _117  and  _120
REMARK   53  A    between atoms: _120  and  _121
REMARK   54  A    between atoms: _127  and  _129
REMARK   55  A    between atoms: _129  and  _130
REMARK   56  A    between atoms: _129  and  _132
REMARK   57  A    between atoms: _132  and  _133
REMARK   58  A    between atoms: _136  and  _138
REMARK   59  A    between atoms: _138  and  _139
REMARK   60  A    between atoms: _142  and  _144
REMARK   61  A    between atoms: _144  and  _145
REMARK   62  A    between atoms: _147  and  _149
REMARK   63  A    between atoms: _149  and  _150
REMARK   64  A    between atoms: _149  and  _152
REMARK   65  A    between atoms: _152  and  _153
REMARK   66  A    between atoms: _153  and  _154
REMARK   67  A    between atoms: _156  and  _158
REMARK   68  A    between atoms: _158  and  _159
REMARK   69  A    between atoms: _158  and  _161
REMARK   70  A    between atoms: _161  and  _162
REMARK   71  A    between atoms: _162  and  _163
REMARK   72  A    between atoms: _163  and  _164
REMARK   73  A    between atoms: _173  and  _175
REMARK   74  A    between atoms: _175  and  _176
REMARK   75  A    between atoms: _175  and  _178
REMARK   76  A    between atoms: _178  and  _179
REMARK   77  A    between atoms: _179  and  _180
REMARK   78  A    between atoms: _183  and  _185
REMARK   79  A    between atoms: _185  and  _186
REMARK   80  A    between atoms: _185  and  _188
REMARK   81  A    between atoms: _188  and  _189
REMARK   82  A    between atoms: _192  and  _194
REMARK   83  A    between atoms: _194  and  _195
REMARK   84  A    between atoms: _194  and  _197
REMARK   85  A    between atoms: _197  and  _198
REMARK   86  A    between atoms: _198  and  _199
REMARK   87  A    between atoms: _201  and  _203
REMARK   88  A    between atoms: _203  and  _204
REMARK   89  A    between atoms: _206  and  _208
REMARK   90  A    between atoms: _208  and  _209
REMARK   91  A    between atoms: _211  and  _213
REMARK   92  A    between atoms: _213  and  _214
REMARK   93  A    between atoms: _217  and  _219
REMARK   94  A    between atoms: _219  and  _220
REMARK   95  A    between atoms: _219  and  _222
REMARK   96  A    between atoms: _222  and  _223
REMARK   97  A    between atoms: _225  and  _227
REMARK   98  A    between atoms: _227  and  _228
REMARK   99  A    between atoms: _227  and  _230
REMARK  100  A    between atoms: _233  and  _235
REMARK  101  A    between atoms: _235  and  _236
REMARK  102  A    between atoms: _235  and  _238
REMARK  103  A    between atoms: _238  and  _239
REMARK  104  A    between atoms: _239  and  _240
REMARK  105  A    between atoms: _245  and  _247
REMARK  106  A    between atoms: _247  and  _248
REMARK  107  A    between atoms: _250  and  _252
REMARK  108  A    between atoms: _252  and  _253
REMARK  109  A    between atoms: _252  and  _255
REMARK  110  A    between atoms: _255  and  _256
REMARK  111  A    between atoms: _256  and  _257
REMARK  112  A    between atoms: _262  and  _264
REMARK  113  A    between atoms: _264  and  _265
REMARK  114  A    between atoms: _264  and  _267
REMARK  115  A    between atoms: _267  and  _268
REMARK  116  A    between atoms: _271  and  _273
REMARK  117  A    between atoms: _273  and  _274
REMARK  118  A    between atoms: _273  and  _276
REMARK  119  A    between atoms: _276  and  _277
REMARK  120  A    between atoms: _277  and  _278
REMARK  121  A    between atoms: _281  and  _283
REMARK  122  A    between atoms: _283  and  _284
REMARK  123  A    between atoms: _283  and  _286
REMARK  124  A    between atoms: _286  and  _287
REMARK  125  A    between atoms: _289  and  _291
REMARK  126  A    between atoms: _291  and  _292
REMARK  127  A    between atoms: _291  and  _294
REMARK  128  A    between atoms: _294  and  _295
REMARK  129  A    between atoms: _298  and  _300
REMARK  130  A    between atoms: _300  and  _301
REMARK  131  A    between atoms: _303  and  _305
REMARK  132  A    between atoms: _305  and  _306
REMARK  133  A    between atoms: _308  and  _310
REMARK  134  A    between atoms: _310  and  _311
REMARK  135  A    between atoms: _310  and  _313
REMARK  136  A    between atoms: _313  and  _314
REMARK  137  A    between atoms: _317  and  _319
REMARK  138  A    between atoms: _319  and  _320
REMARK  139  A    between atoms: _319  and  _322
REMARK  140  A    between atoms: _322  and  _323
REMARK  141  A    between atoms: _325  and  _327
REMARK  142  A    between atoms: _327  and  _328
REMARK  143  A    between atoms: _327  and  _330
REMARK  144  A    between atoms: _330  and  _331
REMARK  145  A    between atoms: _336  and  _338
REMARK  146  A    between atoms: _338  and  _339
REMARK  147  A    between atoms: _338  and  _341
REMARK  148  A    between atoms: _341  and  _342
REMARK  149  A    between atoms: _345  and  _347
REMARK  150  A    between atoms: _347  and  _348
REMARK  151  A    between atoms: _351  and  _353
REMARK  152  A    between atoms: _353  and  _354
REMARK  153  A    between atoms: _353  and  _356
REMARK  154  A    between atoms: _356  and  _357
REMARK  155  A    between atoms: _359  and  _361
REMARK  156  A    between atoms: _361  and  _362
REMARK  157  A    between atoms: _361  and  _364
REMARK  158  A    between atoms: _364  and  _365
REMARK  159  A    between atoms: _367  and  _369
REMARK  160  A    between atoms: _369  and  _370
REMARK  161  A    between atoms: _369  and  _372
REMARK  162  A    between atoms: _372  and  _373
REMARK  163  A    between atoms: _373  and  _374
REMARK  164  A    between atoms: _379  and  _381
REMARK  165  A    between atoms: _381  and  _382
REMARK  166  A    between atoms: _381  and  _384
REMARK  167  A    between atoms: _384  and  _385
REMARK  168  A    between atoms: _388  and  _390
REMARK  169  A    between atoms: _390  and  _391
REMARK  170  A    between atoms: _390  and  _393
REMARK  171  A    between atoms: _393  and  _394
REMARK  172  A    between atoms: _400  and  _402
REMARK  173  A    between atoms: _402  and  _403
REMARK  174  A    between atoms: _402  and  _405
REMARK  175  A    between atoms: _405  and  _406
REMARK  176  A    between atoms: _409  and  _411
REMARK  177  A    between atoms: _411  and  _412
REMARK  178  A    between atoms: _411  and  _414
REMARK  179  A    between atoms: _414  and  _415
REMARK  180  A    between atoms: _418  and  _420
REMARK  181  A    between atoms: _420  and  _421
REMARK  182  A    between atoms: _420  and  _423
REMARK  183  A    between atoms: _423  and  _424
REMARK  184  A    between atoms: _424  and  _425
REMARK  185  A    between atoms: _428  and  _430
REMARK  186  A    between atoms: _430  and  _431
REMARK  187  A    between atoms: _430  and  _433
REMARK  188  A    between atoms: _433  and  _434
REMARK  189  A    between atoms: _439  and  _440
REMARK  190  A    between atoms: _442  and  _444
REMARK  191  A    between atoms: _444  and  _445
REMARK  192  A    between atoms: _444  and  _447
REMARK  193  A    between atoms: _447  and  _448
REMARK  194  A    between atoms: _451  and  _453
REMARK  195  A    between atoms: _453  and  _454
REMARK  196  A    between atoms: _453  and  _456
REMARK  197  A    between atoms: _456  and  _457
REMARK  198  A    between atoms: _457  and  _458
REMARK  199  A    between atoms: _463  and  _465
REMARK  200  A    between atoms: _465  and  _466
REMARK  201  A    between atoms: _465  and  _468
REMARK  202  A    between atoms: _468  and  _469
REMARK  203  A    between atoms: _474  and  _475
REMARK  204  A    between atoms: _477  and  _479
REMARK  205  A    between atoms: _479  and  _480
REMARK  206  A    between atoms: _479  and  _482
REMARK  207  A    between atoms: _482  and  _483
REMARK  208  A    between atoms: _486  and  _488
REMARK  209  A    between atoms: _488  and  _489
REMARK  210  A    between atoms: _488  and  _491
REMARK  211  A    between atoms: _491  and  _492
REMARK  212  A    between atoms: _497  and  _498
REMARK  213  A    between atoms: _500  and  _502
REMARK  214  A    between atoms: _502  and  _503
REMARK  215  A    between atoms: _502  and  _505
REMARK  216  A    between atoms: _505  and  _506
REMARK  217  A    between atoms: _511  and  _512
REMARK  218  A    between atoms: _515  and  _516
REMARK  219  A    between atoms: _521  and  _523
REMARK  220  A    between atoms: _523  and  _524
REMARK  221  A    between atoms: _523  and  _526
REMARK  222  A    between atoms: _526  and  _527
REMARK  223  A    between atoms: _530  and  _532
REMARK  224  A    between atoms: _532  and  _533
REMARK  225  A    between atoms: _532  and  _535
REMARK  226  A    between atoms: _535  and  _536
REMARK                            x       y       z     vdW  Elec       q    Type
REMARK                         _______ _______ _______ _____ _____    ______ ____
ROOT
ATOM      1  O   HOH     1      23.097  41.164  31.334  0.00  0.00    +0.000 OA
ENDROOT
TORSDOF 0
REMARK  Name = ../refined-set-2016/3aaq/3aaq_pocket.pdb
REMARK  226 active torsions:
REMARK  status: ('A' for Active; 'I' for Inactive)
REMARK    1  A    between atoms: _1  and  _3
REMARK    2  A    between atoms: _3  and  _4
REMARK    3  A    between atoms: _3  and  _6
REMARK    4  A    between atoms: _6  and  _7
REMARK    5  A    between atoms: _10  and  _12
REMARK    6  A    between atoms: _12  and  _13
REMARK    7  A    between atoms: _16  and  _18
REMARK    8  A    between atoms: _18  and  _19
REMARK    9  A    between atoms: _21  and  _23
REMARK   10  A    between atoms: _23  and  _24
REMARK   11  A    between atoms: _23  and  _26
REMARK   12  A    between atoms: _26  and  _27
REMARK   13  A    between atoms: _29  and  _31
REMARK   14  A    between atoms: _31  and  _32
REMARK   15  A    between atoms: _31  and  _34
REMARK   16  A    between atoms: _34  and  _35
REMARK   17  A    between atoms: _38  and  _40
REMARK   18  A    between atoms: _40  and  _41
REMARK   19  A    between atoms: _43  and  _45
REMARK   20  A    between atoms: _45  and  _46
REMARK   21  A    between atoms: _45  and  _48
REMARK   22  A    between atoms: _48  and  _49
REMARK   23  A    between atoms: _51  and  _53
REMARK   24  A    between atoms: _53  and  _54
REMARK   25  A    between atoms: _53  and  _56
REMARK   26  A    between atoms: _56  and  _57
REMARK   27  A    between atoms: _57  and  _58
REMARK   28  A    between atoms: _58  and  _59
REMARK   29  A    between atoms: _68  and  _70
REMARK   30  A    between atoms: _70  and  _71
REMARK   31  A    between atoms: _70  and  _73
REMARK   32  A    between atoms: _73  and  _74
REMARK   33  A    between atoms: _74  and  _75
REMARK   34  A    between atoms: _75  and  _76
REMARK   35  A    between atoms: _76  and  _77
REMARK   36  A    between atoms: _81  and  _83
REMARK   37  A    between atoms: _83  and  _84
REMARK   38  A    between atoms: _83  and  _86
REMARK   39  A    between atoms: _86  and  _87
REMARK   40  A    between atoms: _90  and  _92
REMARK   41  A    between atoms: _92  and  _93
REMARK   42  A    between atoms: _92  and  _95
REMARK   43  A    between atoms: _95  and  _96
REMARK   44  A    between atoms: _96  and  _97
REMARK   45  A    between atoms: _97  and  _98
REMARK   46  A    between atoms: _98  and  _99
REMARK   47  A    between atoms: _104  and  _105
REMARK   48  A    between atoms: _110  and  _112
REMARK   49  A    between atoms: _112  and  _113
REMARK   50  A    between atoms: _115  and  _117
REMARK   51  A    between atoms: _117  and  _118
REMARK   52  A    between atoms: _117  and  _120
REMARK   53  A    between atoms: _120  and  _121
REMARK   54  A    between atoms: _127  and  _129
REMARK   55  A    between atoms: _129  and  _130
REMARK   56  A    between atoms: _129  and  _132
REMARK   57  A    between atoms: _132  and  _133
REMARK   58  A    between atoms: _136  and  _138
REMARK   59  A    between atoms: _138  and  _139
REMARK   60  A    between atoms: _142  and  _144
REMARK   61  A    between atoms: _144  and  _145
REMARK   62  A    between atoms: _147  and  _149
REMARK   63  A    between atoms: _149  and  _150
REMARK   64  A    between atoms: _149  and  _152
REMARK   65  A    between atoms: _152  and  _153
REMARK   66  A    between atoms: _153  and  _154
REMARK   67  A    between atoms: _156  and  _158
REMARK   68  A    between atoms: _158  and  _159
REMARK   69  A    between atoms: _158  and  _161
REMARK   70  A    between atoms: _161  and  _162
REMARK   71  A    between atoms: _162  and  _163
REMARK   72  A    between atoms: _163  and  _164
REMARK   73  A    between atoms: _173  and  _175
REMARK   74  A    between atoms: _175  and  _176
REMARK   75  A    between atoms: _175  and  _178
REMARK   76  A    between atoms: _178  and  _179
REMARK   77  A    between atoms: _179  and  _180
REMARK   78  A    between atoms: _183  and  _185
REMARK   79  A    between atoms: _185  and  _186
REMARK   80  A    between atoms: _185  and  _188
REMARK   81  A    between atoms: _188  and  _189
REMARK   82  A    between atoms: _192  and  _194
REMARK   83  A    between atoms: _194  and  _195
REMARK   84  A    between atoms: _194  and  _197
REMARK   85  A    between atoms: _197  and  _198
REMARK   86  A    between atoms: _198  and  _199
REMARK   87  A    between atoms: _201  and  _203
REMARK   88  A    between atoms: _203  and  _204
REMARK   89  A    between atoms: _206  and  _208
REMARK   90  A    between atoms: _208  and  _209
REMARK   91  A    between atoms: _211  and  _213
REMARK   92  A    between atoms: _213  and  _214
REMARK   93  A    between atoms: _217  and  _219
REMARK   94  A    between atoms: _219  and  _220
REMARK   95  A    between atoms: _219  and  _222
REMARK   96  A    between atoms: _222  and  _223
REMARK   97  A    between atoms: _225  and  _227
REMARK   98  A    between atoms: _227  and  _228
REMARK   99  A    between atoms: _227  and  _230
REMARK  100  A    between atoms: _233  and  _235
REMARK  101  A    between atoms: _235  and  _236
REMARK  102  A    between atoms: _235  and  _238
REMARK  103  A    between atoms: _238  and  _239
REMARK  104  A    between atoms: _239  and  _240
REMARK  105  A    between atoms: _245  and  _247
REMARK  106  A    between atoms: _247  and  _248
REMARK  107  A    between atoms: _250  and  _252
REMARK  108  A    between atoms: _252  and  _253
REMARK  109  A    between atoms: _252  and  _255
REMARK  110  A    between atoms: _255  and  _256
REMARK  111  A    between atoms: _256  and  _257
REMARK  112  A    between atoms: _262  and  _264
REMARK  113  A    between atoms: _264  and  _265
REMARK  114  A    between atoms: _264  and  _267
REMARK  115  A    between atoms: _267  and  _268
REMARK  116  A    between atoms: _271  and  _273
REMARK  117  A    between atoms: _273  and  _274
REMARK  118  A    between atoms: _273  and  _276
REMARK  119  A    between atoms: _276  and  _277
REMARK  120  A    between atoms: _277  and  _278
REMARK  121  A    between atoms: _281  and  _283
REMARK  122  A    between atoms: _283  and  _284
REMARK  123  A    between atoms: _283  and  _286
REMARK  124  A    between atoms: _286  and  _287
REMARK  125  A    between atoms: _289  and  _291
REMARK  126  A    between atoms: _291  and  _292
REMARK  127  A    between atoms: _291  and  _294
REMARK  128  A    between atoms: _294  and  _295
REMARK  129  A    between atoms: _298  and  _300
REMARK  130  A    between atoms: _300  and  _301
REMARK  131  A    between atoms: _303  and  _305
REMARK  132  A    between atoms: _305  and  _306
REMARK  133  A    between atoms: _308  and  _310
REMARK  134  A    between atoms: _310  and  _311
REMARK  135  A    between atoms: _310  and  _313
REMARK  136  A    between atoms: _313  and  _314
REMARK  137  A    between atoms: _317  and  _319
REMARK  138  A    between atoms: _319  and  _320
REMARK  139  A    between atoms: _319  and  _322
REMARK  140  A    between atoms: _322  and  _323
REMARK  141  A    between atoms: _325  and  _327
REMARK  142  A    between atoms: _327  and  _328
REMARK  143  A    between atoms: _327  and  _330
REMARK  144  A    between atoms: _330  and  _331
REMARK  145  A    between atoms: _336  and  _338
REMARK  146  A    between atoms: _338  and  _339
REMARK  147  A    between atoms: _338  and  _341
REMARK  148  A    between atoms: _341  and  _342
REMARK  149  A    between atoms: _345  and  _347
REMARK  150  A    between atoms: _347  and  _348
REMARK  151  A    between atoms: _351  and  _353
REMARK  152  A    between atoms: _353  and  _354
REMARK  153  A    between atoms: _353  and  _356
REMARK  154  A    between atoms: _356  and  _357
REMARK  155  A    between atoms: _359  and  _361
REMARK  156  A    between atoms: _361  and  _362
REMARK  157  A    between atoms: _361  and  _364
REMARK  158  A    between atoms: _364  and  _365
REMARK  159  A    between atoms: _367  and  _369
REMARK  160  A    between atoms: _369  and  _370
REMARK  161  A    between atoms: _369  and  _372
REMARK  162  A    between atoms: _372  and  _373
REMARK  163  A    between atoms: _373  and  _374
REMARK  164  A    between atoms: _379  and  _381
REMARK  165  A    between atoms: _381  and  _382
REMARK  166  A    between atoms: _381  and  _384
REMARK  167  A    between atoms: _384  and  _385
REMARK  168  A    between atoms: _388  and  _390
REMARK  169  A    between atoms: _390  and  _391
REMARK  170  A    between atoms: _390  and  _393
REMARK  171  A    between atoms: _393  and  _394
REMARK  172  A    between atoms: _400  and  _402
REMARK  173  A    between atoms: _402  and  _403
REMARK  174  A    between atoms: _402  and  _405
REMARK  175  A    between atoms: _405  and  _406
REMARK  176  A    between atoms: _409  and  _411
REMARK  177  A    between atoms: _411  and  _412
REMARK  178  A    between atoms: _411  and  _414
REMARK  179  A    between atoms: _414  and  _415
REMARK  180  A    between atoms: _418  and  _420
REMARK  181  A    between atoms: _420  and  _421
REMARK  182  A    between atoms: _420  and  _423
REMARK  183  A    between atoms: _423  and  _424
REMARK  184  A    between atoms: _424  and  _425
REMARK  185  A    between atoms: _428  and  _430
REMARK  186  A    between atoms: _430  and  _431
REMARK  187  A    between atoms: _430  and  _433
REMARK  188  A    between atoms: _433  and  _434
REMARK  189  A    between atoms: _439  and  _440
REMARK  190  A    between atoms: _442  and  _444
REMARK  191  A    between atoms: _444  and  _445
REMARK  192  A    between atoms: _444  and  _447
REMARK  193  A    between atoms: _447  and  _448
REMARK  194  A    between atoms: _451  and  _453
REMARK  195  A    between atoms: _453  and  _454
REMARK  196  A    between atoms: _453  and  _456
REMARK  197  A    between atoms: _456  and  _457
REMARK  198  A    between atoms: _457  and  _458
REMARK  199  A    between atoms: _463  and  _465
REMARK  200  A    between atoms: _465  and  _466
REMARK  201  A    between atoms: _465  and  _468
REMARK  202  A    between atoms: _468  and  _469
REMARK  203  A    between atoms: _474  and  _475
REMARK  204  A    between atoms: _477  and  _479
REMARK  205  A    between atoms: _479  and  _480
REMARK  206  A    between atoms: _479  and  _482
REMARK  207  A    between atoms: _482  and  _483
REMARK  208  A    between atoms: _486  and  _488
REMARK  209  A    between atoms: _488  and  _489
REMARK  210  A    between atoms: _488  and  _491
REMARK  211  A    between atoms: _491  and  _492
REMARK  212  A    between atoms: _497  and  _498
REMARK  213  A    between atoms: _500  and  _502
REMARK  214  A    between atoms: _502  and  _503
REMARK  215  A    between atoms: _502  and  _505
REMARK  216  A    between atoms: _505  and  _506
REMARK  217  A    between atoms: _511  and  _512
REMARK  218  A    between atoms: _515  and  _516
REMARK  219  A    between atoms: _521  and  _523
REMARK  220  A    between atoms: _523  and  _524
REMARK  221  A    between atoms: _523  and  _526
REMARK  222  A    between atoms: _526  and  _527
REMARK  223  A    between atoms: _530  and  _532
REMARK  224  A    between atoms: _532  and  _533
REMARK  225  A    between atoms: _532  and  _535
REMARK  226  A    between atoms: _535  and  _536
REMARK                            x       y       z     vdW  Elec       q    Type
REMARK                         _______ _______ _______ _____ _____    ______ ____
ROOT
ATOM      1  O   HOH     1      33.239  27.551  21.703  0.00  0.00    +0.000 OA
ENDROOT
TORSDOF 0
REMARK  Name = ../refined-set-2016/3aaq/3aaq_pocket.pdb
REMARK  226 active torsions:
REMARK  status: ('A' for Active; 'I' for Inactive)
REMARK    1  A    between atoms: _1  and  _3
REMARK    2  A    between atoms: _3  and  _4
REMARK    3  A    between atoms: _3  and  _6
REMARK    4  A    between atoms: _6  and  _7
REMARK    5  A    between atoms: _10  and  _12
REMARK    6  A    between atoms: _12  and  _13
REMARK    7  A    between atoms: _16  and  _18
REMARK    8  A    between atoms: _18  and  _19
REMARK    9  A    between atoms: _21  and  _23
REMARK   10  A    between atoms: _23  and  _24
REMARK   11  A    between atoms: _23  and  _26
REMARK   12  A    between atoms: _26  and  _27
REMARK   13  A    between atoms: _29  and  _31
REMARK   14  A    between atoms: _31  and  _32
REMARK   15  A    between atoms: _31  and  _34
REMARK   16  A    between atoms: _34  and  _35
REMARK   17  A    between atoms: _38  and  _40
REMARK   18  A    between atoms: _40  and  _41
REMARK   19  A    between atoms: _43  and  _45
REMARK   20  A    between atoms: _45  and  _46
REMARK   21  A    between atoms: _45  and  _48
REMARK   22  A    between atoms: _48  and  _49
REMARK   23  A    between atoms: _51  and  _53
REMARK   24  A    between atoms: _53  and  _54
REMARK   25  A    between atoms: _53  and  _56
REMARK   26  A    between atoms: _56  and  _57
REMARK   27  A    between atoms: _57  and  _58
REMARK   28  A    between atoms: _58  and  _59
REMARK   29  A    between atoms: _68  and  _70
REMARK   30  A    between atoms: _70  and  _71
REMARK   31  A    between atoms: _70  and  _73
REMARK   32  A    between atoms: _73  and  _74
REMARK   33  A    between atoms: _74  and  _75
REMARK   34  A    between atoms: _75  and  _76
REMARK   35  A    between atoms: _76  and  _77
REMARK   36  A    between atoms: _81  and  _83
REMARK   37  A    between atoms: _83  and  _84
REMARK   38  A    between atoms: _83  and  _86
REMARK   39  A    between atoms: _86  and  _87
REMARK   40  A    between atoms: _90  and  _92
REMARK   41  A    between atoms: _92  and  _93
REMARK   42  A    between atoms: _92  and  _95
REMARK   43  A    between atoms: _95  and  _96
REMARK   44  A    between atoms: _96  and  _97
REMARK   45  A    between atoms: _97  and  _98
REMARK   46  A    between atoms: _98  and  _99
REMARK   47  A    between atoms: _104  and  _105
REMARK   48  A    between atoms: _110  and  _112
REMARK   49  A    between atoms: _112  and  _113
REMARK   50  A    between atoms: _115  and  _117
REMARK   51  A    between atoms: _117  and  _118
REMARK   52  A    between atoms: _117  and  _120
REMARK   53  A    between atoms: _120  and  _121
REMARK   54  A    between atoms: _127  and  _129
REMARK   55  A    between atoms: _129  and  _130
REMARK   56  A    between atoms: _129  and  _132
REMARK   57  A    between atoms: _132  and  _133
REMARK   58  A    between atoms: _136  and  _138
REMARK   59  A    between atoms: _138  and  _139
REMARK   60  A    between atoms: _142  and  _144
REMARK   61  A    between atoms: _144  and  _145
REMARK   62  A    between atoms: _147  and  _149
REMARK   63  A    between atoms: _149  and  _150
REMARK   64  A    between atoms: _149  and  _152
REMARK   65  A    between atoms: _152  and  _153
REMARK   66  A    between atoms: _153  and  _154
REMARK   67  A    between atoms: _156  and  _158
REMARK   68  A    between atoms: _158  and  _159
REMARK   69  A    between atoms: _158  and  _161
REMARK   70  A    between atoms: _161  and  _162
REMARK   71  A    between atoms: _162  and  _163
REMARK   72  A    between atoms: _163  and  _164
REMARK   73  A    between atoms: _173  and  _175
REMARK   74  A    between atoms: _175  and  _176
REMARK   75  A    between atoms: _175  and  _178
REMARK   76  A    between atoms: _178  and  _179
REMARK   77  A    between atoms: _179  and  _180
REMARK   78  A    between atoms: _183  and  _185
REMARK   79  A    between atoms: _185  and  _186
REMARK   80  A    between atoms: _185  and  _188
REMARK   81  A    between atoms: _188  and  _189
REMARK   82  A    between atoms: _192  and  _194
REMARK   83  A    between atoms: _194  and  _195
REMARK   84  A    between atoms: _194  and  _197
REMARK   85  A    between atoms: _197  and  _198
REMARK   86  A    between atoms: _198  and  _199
REMARK   87  A    between atoms: _201  and  _203
REMARK   88  A    between atoms: _203  and  _204
REMARK   89  A    between atoms: _206  and  _208
REMARK   90  A    between atoms: _208  and  _209
REMARK   91  A    between atoms: _211  and  _213
REMARK   92  A    between atoms: _213  and  _214
REMARK   93  A    between atoms: _217  and  _219
REMARK   94  A    between atoms: _219  and  _220
REMARK   95  A    between atoms: _219  and  _222
REMARK   96  A    between atoms: _222  and  _223
REMARK   97  A    between atoms: _225  and  _227
REMARK   98  A    between atoms: _227  and  _228
REMARK   99  A    between atoms: _227  and  _230
REMARK  100  A    between atoms: _233  and  _235
REMARK  101  A    between atoms: _235  and  _236
REMARK  102  A    between atoms: _235  and  _238
REMARK  103  A    between atoms: _238  and  _239
REMARK  104  A    between atoms: _239  and  _240
REMARK  105  A    between atoms: _245  and  _247
REMARK  106  A    between atoms: _247  and  _248
REMARK  107  A    between atoms: _250  and  _252
REMARK  108  A    between atoms: _252  and  _253
REMARK  109  A    between atoms: _252  and  _255
REMARK  110  A    between atoms: _255  and  _256
REMARK  111  A    between atoms: _256  and  _257
REMARK  112  A    between atoms: _262  and  _264
REMARK  113  A    between atoms: _264  and  _265
REMARK  114  A    between atoms: _264  and  _267
REMARK  115  A    between atoms: _267  and  _268
REMARK  116  A    between atoms: _271  and  _273
REMARK  117  A    between atoms: _273  and  _274
REMARK  118  A    between atoms: _273  and  _276
REMARK  119  A    between atoms: _276  and  _277
REMARK  120  A    between atoms: _277  and  _278
REMARK  121  A    between atoms: _281  and  _283
REMARK  122  A    between atoms: _283  and  _284
REMARK  123  A    between atoms: _283  and  _286
REMARK  124  A    between atoms: _286  and  _287
REMARK  125  A    between atoms: _289  and  _291
REMARK  126  A    between atoms: _291  and  _292
REMARK  127  A    between atoms: _291  and  _294
REMARK  128  A    between atoms: _294  and  _295
REMARK  129  A    between atoms: _298  and  _300
REMARK  130  A    between atoms: _300  and  _301
REMARK  131  A    between atoms: _303  and  _305
REMARK  132  A    between atoms: _305  and  _306
REMARK  133  A    between atoms: _308  and  _310
REMARK  134  A    between atoms: _310  and  _311
REMARK  135  A    between atoms: _310  and  _313
REMARK  136  A    between atoms: _313  and  _314
REMARK  137  A    between atoms: _317  and  _319
REMARK  138  A    between atoms: _319  and  _320
REMARK  139  A    between atoms: _319  and  _322
REMARK  140  A    between atoms: _322  and  _323
REMARK  141  A    between atoms: _325  and  _327
REMARK  142  A    between atoms: _327  and  _328
REMARK  143  A    between atoms: _327  and  _330
REMARK  144  A    between atoms: _330  and  _331
REMARK  145  A    between atoms: _336  and  _338
REMARK  146  A    between atoms: _338  and  _339
REMARK  147  A    between atoms: _338  and  _341
REMARK  148  A    between atoms: _341  and  _342
REMARK  149  A    between atoms: _345  and  _347
REMARK  150  A    between atoms: _347  and  _348
REMARK  151  A    between atoms: _351  and  _353
REMARK  152  A    between atoms: _353  and  _354
REMARK  153  A    between atoms: _353  and  _356
REMARK  154  A    between atoms: _356  and  _357
REMARK  155  A    between atoms: _359  and  _361
REMARK  156  A    between atoms: _361  and  _362
REMARK  157  A    between atoms: _361  and  _364
REMARK  158  A    between atoms: _364  and  _365
REMARK  159  A    between atoms: _367  and  _369
REMARK  160  A    between atoms: _369  and  _370
REMARK  161  A    between atoms: _369  and  _372
REMARK  162  A    between atoms: _372  and  _373
REMARK  163  A    between atoms: _373  and  _374
REMARK  164  A    between atoms: _379  and  _381
REMARK  165  A    between atoms: _381  and  _382
REMARK  166  A    between atoms: _381  and  _384
REMARK  167  A    between atoms: _384  and  _385
REMARK  168  A    between atoms: _388  and  _390
REMARK  169  A    between atoms: _390  and  _391
REMARK  170  A    between atoms: _390  and  _393
REMARK  171  A    between atoms: _393  and  _394
REMARK  172  A    between atoms: _400  and  _402
REMARK  173  A    between atoms: _402  and  _403
REMARK  174  A    between atoms: _402  and  _405
REMARK  175  A    between atoms: _405  and  _406
REMARK  176  A    between atoms: _409  and  _411
REMARK  177  A    between atoms: _411  and  _412
REMARK  178  A    between atoms: _411  and  _414
REMARK  179  A    between atoms: _414  and  _415
REMARK  180  A    between atoms: _418  and  _420
REMARK  181  A    between atoms: _420  and  _421
REMARK  182  A    between atoms: _420  and  _423
REMARK  183  A    between atoms: _423  and  _424
REMARK  184  A    between atoms: _424  and  _425
REMARK  185  A    between atoms: _428  and  _430
REMARK  186  A    between atoms: _430  and  _431
REMARK  187  A    between atoms: _430  and  _433
REMARK  188  A    between atoms: _433  and  _434
REMARK  189  A    between atoms: _439  and  _440
REMARK  190  A    between atoms: _442  and  _444
REMARK  191  A    between atoms: _444  and  _445
REMARK  192  A    between atoms: _444  and  _447
REMARK  193  A    between atoms: _447  and  _448
REMARK  194  A    between atoms: _451  and  _453
REMARK  195  A    between atoms: _453  and  _454
REMARK  196  A    between atoms: _453  and  _456
REMARK  197  A    between atoms: _456  and  _457
REMARK  198  A    between atoms: _457  and  _458
REMARK  199  A    between atoms: _463  and  _465
REMARK  200  A    between atoms: _465  and  _466
REMARK  201  A    between atoms: _465  and  _468
REMARK  202  A    between atoms: _468  and  _469
REMARK  203  A    between atoms: _474  and  _475
REMARK  204  A    between atoms: _477  and  _479
REMARK  205  A    between atoms: _479  and  _480
REMARK  206  A    between atoms: _479  and  _482
REMARK  207  A    between atoms: _482  and  _483
REMARK  208  A    between atoms: _486  and  _488
REMARK  209  A    between atoms: _488  and  _489
REMARK  210  A    between atoms: _488  and  _491
REMARK  211  A    between atoms: _491  and  _492
REMARK  212  A    between atoms: _497  and  _498
REMARK  213  A    between atoms: _500  and  _502
REMARK  214  A    between atoms: _502  and  _503
REMARK  215  A    between atoms: _502  and  _505
REMARK  216  A    between atoms: _505  and  _506
REMARK  217  A    between atoms: _511  and  _512
REMARK  218  A    between atoms: _515  and  _516
REMARK  219  A    between atoms: _521  and  _523
REMARK  220  A    between atoms: _523  and  _524
REMARK  221  A    between atoms: _523  and  _526
REMARK  222  A    between atoms: _526  and  _527
REMARK  223  A    between atoms: _530  and  _532
REMARK  224  A    between atoms: _532  and  _533
REMARK  225  A    between atoms: _532  and  _535
REMARK  226  A    between atoms: _535  and  _536
REMARK                            x       y       z     vdW  Elec       q    Type
REMARK                         _______ _______ _______ _____ _____    ______ ____
ROOT
ATOM      1  O   HOH     1      22.054  33.378  24.561  0.00  0.00    +0.000 OA
ENDROOT
TORSDOF 0
REMARK  Name = ../refined-set-2016/3aaq/3aaq_pocket.pdb
REMARK  226 active torsions:
REMARK  status: ('A' for Active; 'I' for Inactive)
REMARK    1  A    between atoms: _1  and  _3
REMARK    2  A    between atoms: _3  and  _4
REMARK    3  A    between atoms: _3  and  _6
REMARK    4  A    between atoms: _6  and  _7
REMARK    5  A    between atoms: _10  and  _12
REMARK    6  A    between atoms: _12  and  _13
REMARK    7  A    between atoms: _16  and  _18
REMARK    8  A    between atoms: _18  and  _19
REMARK    9  A    between atoms: _21  and  _23
REMARK   10  A    between atoms: _23  and  _24
REMARK   11  A    between atoms: _23  and  _26
REMARK   12  A    between atoms: _26  and  _27
REMARK   13  A    between atoms: _29  and  _31
REMARK   14  A    between atoms: _31  and  _32
REMARK   15  A    between atoms: _31  and  _34
REMARK   16  A    between atoms: _34  and  _35
REMARK   17  A    between atoms: _38  and  _40
REMARK   18  A    between atoms: _40  and  _41
REMARK   19  A    between atoms: _43  and  _45
REMARK   20  A    between atoms: _45  and  _46
REMARK   21  A    between atoms: _45  and  _48
REMARK   22  A    between atoms: _48  and  _49
REMARK   23  A    between atoms: _51  and  _53
REMARK   24  A    between atoms: _53  and  _54
REMARK   25  A    between atoms: _53  and  _56
REMARK   26  A    between atoms: _56  and  _57
REMARK   27  A    between atoms: _57  and  _58
REMARK   28  A    between atoms: _58  and  _59
REMARK   29  A    between atoms: _68  and  _70
REMARK   30  A    between atoms: _70  and  _71
REMARK   31  A    between atoms: _70  and  _73
REMARK   32  A    between atoms: _73  and  _74
REMARK   33  A    between atoms: _74  and  _75
REMARK   34  A    between atoms: _75  and  _76
REMARK   35  A    between atoms: _76  and  _77
REMARK   36  A    between atoms: _81  and  _83
REMARK   37  A    between atoms: _83  and  _84
REMARK   38  A    between atoms: _83  and  _86
REMARK   39  A    between atoms: _86  and  _87
REMARK   40  A    between atoms: _90  and  _92
REMARK   41  A    between atoms: _92  and  _93
REMARK   42  A    between atoms: _92  and  _95
REMARK   43  A    between atoms: _95  and  _96
REMARK   44  A    between atoms: _96  and  _97
REMARK   45  A    between atoms: _97  and  _98
REMARK   46  A    between atoms: _98  and  _99
REMARK   47  A    between atoms: _104  and  _105
REMARK   48  A    between atoms: _110  and  _112
REMARK   49  A    between atoms: _112  and  _113
REMARK   50  A    between atoms: _115  and  _117
REMARK   51  A    between atoms: _117  and  _118
REMARK   52  A    between atoms: _117  and  _120
REMARK   53  A    between atoms: _120  and  _121
REMARK   54  A    between atoms: _127  and  _129
REMARK   55  A    between atoms: _129  and  _130
REMARK   56  A    between atoms: _129  and  _132
REMARK   57  A    between atoms: _132  and  _133
REMARK   58  A    between atoms: _136  and  _138
REMARK   59  A    between atoms: _138  and  _139
REMARK   60  A    between atoms: _142  and  _144
REMARK   61  A    between atoms: _144  and  _145
REMARK   62  A    between atoms: _147  and  _149
REMARK   63  A    between atoms: _149  and  _150
REMARK   64  A    between atoms: _149  and  _152
REMARK   65  A    between atoms: _152  and  _153
REMARK   66  A    between atoms: _153  and  _154
REMARK   67  A    between atoms: _156  and  _158
REMARK   68  A    between atoms: _158  and  _159
REMARK   69  A    between atoms: _158  and  _161
REMARK   70  A    between atoms: _161  and  _162
REMARK   71  A    between atoms: _162  and  _163
REMARK   72  A    between atoms: _163  and  _164
REMARK   73  A    between atoms: _173  and  _175
REMARK   74  A    between atoms: _175  and  _176
REMARK   75  A    between atoms: _175  and  _178
REMARK   76  A    between atoms: _178  and  _179
REMARK   77  A    between atoms: _179  and  _180
REMARK   78  A    between atoms: _183  and  _185
REMARK   79  A    between atoms: _185  and  _186
REMARK   80  A    between atoms: _185  and  _188
REMARK   81  A    between atoms: _188  and  _189
REMARK   82  A    between atoms: _192  and  _194
REMARK   83  A    between atoms: _194  and  _195
REMARK   84  A    between atoms: _194  and  _197
REMARK   85  A    between atoms: _197  and  _198
REMARK   86  A    between atoms: _198  and  _199
REMARK   87  A    between atoms: _201  and  _203
REMARK   88  A    between atoms: _203  and  _204
REMARK   89  A    between atoms: _206  and  _208
REMARK   90  A    between atoms: _208  and  _209
REMARK   91  A    between atoms: _211  and  _213
REMARK   92  A    between atoms: _213  and  _214
REMARK   93  A    between atoms: _217  and  _219
REMARK   94  A    between atoms: _219  and  _220
REMARK   95  A    between atoms: _219  and  _222
REMARK   96  A    between atoms: _222  and  _223
REMARK   97  A    between atoms: _225  and  _227
REMARK   98  A    between atoms: _227  and  _228
REMARK   99  A    between atoms: _227  and  _230
REMARK  100  A    between atoms: _233  and  _235
REMARK  101  A    between atoms: _235  and  _236
REMARK  102  A    between atoms: _235  and  _238
REMARK  103  A    between atoms: _238  and  _239
REMARK  104  A    between atoms: _239  and  _240
REMARK  105  A    between atoms: _245  and  _247
REMARK  106  A    between atoms: _247  and  _248
REMARK  107  A    between atoms: _250  and  _252
REMARK  108  A    between atoms: _252  and  _253
REMARK  109  A    between atoms: _252  and  _255
REMARK  110  A    between atoms: _255  and  _256
REMARK  111  A    between atoms: _256  and  _257
REMARK  112  A    between atoms: _262  and  _264
REMARK  113  A    between atoms: _264  and  _265
REMARK  114  A    between atoms: _264  and  _267
REMARK  115  A    between atoms: _267  and  _268
REMARK  116  A    between atoms: _271  and  _273
REMARK  117  A    between atoms: _273  and  _274
REMARK  118  A    between atoms: _273  and  _276
REMARK  119  A    between atoms: _276  and  _277
REMARK  120  A    between atoms: _277  and  _278
REMARK  121  A    between atoms: _281  and  _283
REMARK  122  A    between atoms: _283  and  _284
REMARK  123  A    between atoms: _283  and  _286
REMARK  124  A    between atoms: _286  and  _287
REMARK  125  A    between atoms: _289  and  _291
REMARK  126  A    between atoms: _291  and  _292
REMARK  127  A    between atoms: _291  and  _294
REMARK  128  A    between atoms: _294  and  _295
REMARK  129  A    between atoms: _298  and  _300
REMARK  130  A    between atoms: _300  and  _301
REMARK  131  A    between atoms: _303  and  _305
REMARK  132  A    between atoms: _305  and  _306
REMARK  133  A    between atoms: _308  and  _310
REMARK  134  A    between atoms: _310  and  _311
REMARK  135  A    between atoms: _310  and  _313
REMARK  136  A    between atoms: _313  and  _314
REMARK  137  A    between atoms: _317  and  _319
REMARK  138  A    between atoms: _319  and  _320
REMARK  139  A    between atoms: _319  and  _322
REMARK  140  A    between atoms: _322  and  _323
REMARK  141  A    between atoms: _325  and  _327
REMARK  142  A    between atoms: _327  and  _328
REMARK  143  A    between atoms: _327  and  _330
REMARK  144  A    between atoms: _330  and  _331
REMARK  145  A    between atoms: _336  and  _338
REMARK  146  A    between atoms: _338  and  _339
REMARK  147  A    between atoms: _338  and  _341
REMARK  148  A    between atoms: _341  and  _342
REMARK  149  A    between atoms: _345  and  _347
REMARK  150  A    between atoms: _347  and  _348
REMARK  151  A    between atoms: _351  and  _353
REMARK  152  A    between atoms: _353  and  _354
REMARK  153  A    between atoms: _353  and  _356
REMARK  154  A    between atoms: _356  and  _357
REMARK  155  A    between atoms: _359  and  _361
REMARK  156  A    between atoms: _361  and  _362
REMARK  157  A    between atoms: _361  and  _364
REMARK  158  A    between atoms: _364  and  _365
REMARK  159  A    between atoms: _367  and  _369
REMARK  160  A    between atoms: _369  and  _370
REMARK  161  A    between atoms: _369  and  _372
REMARK  162  A    between atoms: _372  and  _373
REMARK  163  A    between atoms: _373  and  _374
REMARK  164  A    between atoms: _379  and  _381
REMARK  165  A    between atoms: _381  and  _382
REMARK  166  A    between atoms: _381  and  _384
REMARK  167  A    between atoms: _384  and  _385
REMARK  168  A    between atoms: _388  and  _390
REMARK  169  A    between atoms: _390  and  _391
REMARK  170  A    between atoms: _390  and  _393
REMARK  171  A    between atoms: _393  and  _394
REMARK  172  A    between atoms: _400  and  _402
REMARK  173  A    between atoms: _402  and  _403
REMARK  174  A    between atoms: _402  and  _405
REMARK  175  A    between atoms: _405  and  _406
REMARK  176  A    between atoms: _409  and  _411
REMARK  177  A    between atoms: _411  and  _412
REMARK  178  A    between atoms: _411  and  _414
REMARK  179  A    between atoms: _414  and  _415
REMARK  180  A    between atoms: _418  and  _420
REMARK  181  A    between atoms: _420  and  _421
REMARK  182  A    between atoms: _420  and  _423
REMARK  183  A    between atoms: _423  and  _424
REMARK  184  A    between atoms: _424  and  _425
REMARK  185  A    between atoms: _428  and  _430
REMARK  186  A    between atoms: _430  and  _431
REMARK  187  A    between atoms: _430  and  _433
REMARK  188  A    between atoms: _433  and  _434
REMARK  189  A    between atoms: _439  and  _440
REMARK  190  A    between atoms: _442  and  _444
REMARK  191  A    between atoms: _444  and  _445
REMARK  192  A    between atoms: _444  and  _447
REMARK  193  A    between atoms: _447  and  _448
REMARK  194  A    between atoms: _451  and  _453
REMARK  195  A    between atoms: _453  and  _454
REMARK  196  A    between atoms: _453  and  _456
REMARK  197  A    between atoms: _456  and  _457
REMARK  198  A    between atoms: _457  and  _458
REMARK  199  A    between atoms: _463  and  _465
REMARK  200  A    between atoms: _465  and  _466
REMARK  201  A    between atoms: _465  and  _468
REMARK  202  A    between atoms: _468  and  _469
REMARK  203  A    between atoms: _474  and  _475
REMARK  204  A    between atoms: _477  and  _479
REMARK  205  A    between atoms: _479  and  _480
REMARK  206  A    between atoms: _479  and  _482
REMARK  207  A    between atoms: _482  and  _483
REMARK  208  A    between atoms: _486  and  _488
REMARK  209  A    between atoms: _488  and  _489
REMARK  210  A    between atoms: _488  and  _491
REMARK  211  A    between atoms: _491  and  _492
REMARK  212  A    between atoms: _497  and  _498
REMARK  213  A    between atoms: _500  and  _502
REMARK  214  A    between atoms: _502  and  _503
REMARK  215  A    between atoms: _502  and  _505
REMARK  216  A    between atoms: _505  and  _506
REMARK  217  A    between atoms: _511  and  _512
REMARK  218  A    between atoms: _515  and  _516
REMARK  219  A    between atoms: _521  and  _523
REMARK  220  A    between atoms: _523  and  _524
REMARK  221  A    between atoms: _523  and  _526
REMARK  222  A    between atoms: _526  and  _527
REMARK  223  A    between atoms: _530  and  _532
REMARK  224  A    between atoms: _532  and  _533
REMARK  225  A    between atoms: _532  and  _535
REMARK  226  A    between atoms: _535  and  _536
REMARK                            x       y       z     vdW  Elec       q    Type
REMARK                         _______ _______ _______ _____ _____    ______ ____
ROOT
ATOM      1  O   HOH     1      28.761  29.662  22.646  0.00  0.00    +0.000 OA
ENDROOT
TORSDOF 0
REMARK  Name = ../refined-set-2016/3aaq/3aaq_pocket.pdb
REMARK  226 active torsions:
REMARK  status: ('A' for Active; 'I' for Inactive)
REMARK    1  A    between atoms: _1  and  _3
REMARK    2  A    between atoms: _3  and  _4
REMARK    3  A    between atoms: _3  and  _6
REMARK    4  A    between atoms: _6  and  _7
REMARK    5  A    between atoms: _10  and  _12
REMARK    6  A    between atoms: _12  and  _13
REMARK    7  A    between atoms: _16  and  _18
REMARK    8  A    between atoms: _18  and  _19
REMARK    9  A    between atoms: _21  and  _23
REMARK   10  A    between atoms: _23  and  _24
REMARK   11  A    between atoms: _23  and  _26
REMARK   12  A    between atoms: _26  and  _27
REMARK   13  A    between atoms: _29  and  _31
REMARK   14  A    between atoms: _31  and  _32
REMARK   15  A    between atoms: _31  and  _34
REMARK   16  A    between atoms: _34  and  _35
REMARK   17  A    between atoms: _38  and  _40
REMARK   18  A    between atoms: _40  and  _41
REMARK   19  A    between atoms: _43  and  _45
REMARK   20  A    between atoms: _45  and  _46
REMARK   21  A    between atoms: _45  and  _48
REMARK   22  A    between atoms: _48  and  _49
REMARK   23  A    between atoms: _51  and  _53
REMARK   24  A    between atoms: _53  and  _54
REMARK   25  A    between atoms: _53  and  _56
REMARK   26  A    between atoms: _56  and  _57
REMARK   27  A    between atoms: _57  and  _58
REMARK   28  A    between atoms: _58  and  _59
REMARK   29  A    between atoms: _68  and  _70
REMARK   30  A    between atoms: _70  and  _71
REMARK   31  A    between atoms: _70  and  _73
REMARK   32  A    between atoms: _73  and  _74
REMARK   33  A    between atoms: _74  and  _75
REMARK   34  A    between atoms: _75  and  _76
REMARK   35  A    between atoms: _76  and  _77
REMARK   36  A    between atoms: _81  and  _83
REMARK   37  A    between atoms: _83  and  _84
REMARK   38  A    between atoms: _83  and  _86
REMARK   39  A    between atoms: _86  and  _87
REMARK   40  A    between atoms: _90  and  _92
REMARK   41  A    between atoms: _92  and  _93
REMARK   42  A    between atoms: _92  and  _95
REMARK   43  A    between atoms: _95  and  _96
REMARK   44  A    between atoms: _96  and  _97
REMARK   45  A    between atoms: _97  and  _98
REMARK   46  A    between atoms: _98  and  _99
REMARK   47  A    between atoms: _104  and  _105
REMARK   48  A    between atoms: _110  and  _112
REMARK   49  A    between atoms: _112  and  _113
REMARK   50  A    between atoms: _115  and  _117
REMARK   51  A    between atoms: _117  and  _118
REMARK   52  A    between atoms: _117  and  _120
REMARK   53  A    between atoms: _120  and  _121
REMARK   54  A    between atoms: _127  and  _129
REMARK   55  A    between atoms: _129  and  _130
REMARK   56  A    between atoms: _129  and  _132
REMARK   57  A    between atoms: _132  and  _133
REMARK   58  A    between atoms: _136  and  _138
REMARK   59  A    between atoms: _138  and  _139
REMARK   60  A    between atoms: _142  and  _144
REMARK   61  A    between atoms: _144  and  _145
REMARK   62  A    between atoms: _147  and  _149
REMARK   63  A    between atoms: _149  and  _150
REMARK   64  A    between atoms: _149  and  _152
REMARK   65  A    between atoms: _152  and  _153
REMARK   66  A    between atoms: _153  and  _154
REMARK   67  A    between atoms: _156  and  _158
REMARK   68  A    between atoms: _158  and  _159
REMARK   69  A    between atoms: _158  and  _161
REMARK   70  A    between atoms: _161  and  _162
REMARK   71  A    between atoms: _162  and  _163
REMARK   72  A    between atoms: _163  and  _164
REMARK   73  A    between atoms: _173  and  _175
REMARK   74  A    between atoms: _175  and  _176
REMARK   75  A    between atoms: _175  and  _178
REMARK   76  A    between atoms: _178  and  _179
REMARK   77  A    between atoms: _179  and  _180
REMARK   78  A    between atoms: _183  and  _185
REMARK   79  A    between atoms: _185  and  _186
REMARK   80  A    between atoms: _185  and  _188
REMARK   81  A    between atoms: _188  and  _189
REMARK   82  A    between atoms: _192  and  _194
REMARK   83  A    between atoms: _194  and  _195
REMARK   84  A    between atoms: _194  and  _197
REMARK   85  A    between atoms: _197  and  _198
REMARK   86  A    between atoms: _198  and  _199
REMARK   87  A    between atoms: _201  and  _203
REMARK   88  A    between atoms: _203  and  _204
REMARK   89  A    between atoms: _206  and  _208
REMARK   90  A    between atoms: _208  and  _209
REMARK   91  A    between atoms: _211  and  _213
REMARK   92  A    between atoms: _213  and  _214
REMARK   93  A    between atoms: _217  and  _219
REMARK   94  A    between atoms: _219  and  _220
REMARK   95  A    between atoms: _219  and  _222
REMARK   96  A    between atoms: _222  and  _223
REMARK   97  A    between atoms: _225  and  _227
REMARK   98  A    between atoms: _227  and  _228
REMARK   99  A    between atoms: _227  and  _230
REMARK  100  A    between atoms: _233  and  _235
REMARK  101  A    between atoms: _235  and  _236
REMARK  102  A    between atoms: _235  and  _238
REMARK  103  A    between atoms: _238  and  _239
REMARK  104  A    between atoms: _239  and  _240
REMARK  105  A    between atoms: _245  and  _247
REMARK  106  A    between atoms: _247  and  _248
REMARK  107  A    between atoms: _250  and  _252
REMARK  108  A    between atoms: _252  and  _253
REMARK  109  A    between atoms: _252  and  _255
REMARK  110  A    between atoms: _255  and  _256
REMARK  111  A    between atoms: _256  and  _257
REMARK  112  A    between atoms: _262  and  _264
REMARK  113  A    between atoms: _264  and  _265
REMARK  114  A    between atoms: _264  and  _267
REMARK  115  A    between atoms: _267  and  _268
REMARK  116  A    between atoms: _271  and  _273
REMARK  117  A    between atoms: _273  and  _274
REMARK  118  A    between atoms: _273  and  _276
REMARK  119  A    between atoms: _276  and  _277
REMARK  120  A    between atoms: _277  and  _278
REMARK  121  A    between atoms: _281  and  _283
REMARK  122  A    between atoms: _283  and  _284
REMARK  123  A    between atoms: _283  and  _286
REMARK  124  A    between atoms: _286  and  _287
REMARK  125  A    between atoms: _289  and  _291
REMARK  126  A    between atoms: _291  and  _292
REMARK  127  A    between atoms: _291  and  _294
REMARK  128  A    between atoms: _294  and  _295
REMARK  129  A    between atoms: _298  and  _300
REMARK  130  A    between atoms: _300  and  _301
REMARK  131  A    between atoms: _303  and  _305
REMARK  132  A    between atoms: _305  and  _306
REMARK  133  A    between atoms: _308  and  _310
REMARK  134  A    between atoms: _310  and  _311
REMARK  135  A    between atoms: _310  and  _313
REMARK  136  A    between atoms: _313  and  _314
REMARK  137  A    between atoms: _317  and  _319
REMARK  138  A    between atoms: _319  and  _320
REMARK  139  A    between atoms: _319  and  _322
REMARK  140  A    between atoms: _322  and  _323
REMARK  141  A    between atoms: _325  and  _327
REMARK  142  A    between atoms: _327  and  _328
REMARK  143  A    between atoms: _327  and  _330
REMARK  144  A    between atoms: _330  and  _331
REMARK  145  A    between atoms: _336  and  _338
REMARK  146  A    between atoms: _338  and  _339
REMARK  147  A    between atoms: _338  and  _341
REMARK  148  A    between atoms: _341  and  _342
REMARK  149  A    between atoms: _345  and  _347
REMARK  150  A    between atoms: _347  and  _348
REMARK  151  A    between atoms: _351  and  _353
REMARK  152  A    between atoms: _353  and  _354
REMARK  153  A    between atoms: _353  and  _356
REMARK  154  A    between atoms: _356  and  _357
REMARK  155  A    between atoms: _359  and  _361
REMARK  156  A    between atoms: _361  and  _362
REMARK  157  A    between atoms: _361  and  _364
REMARK  158  A    between atoms: _364  and  _365
REMARK  159  A    between atoms: _367  and  _369
REMARK  160  A    between atoms: _369  and  _370
REMARK  161  A    between atoms: _369  and  _372
REMARK  162  A    between atoms: _372  and  _373
REMARK  163  A    between atoms: _373  and  _374
REMARK  164  A    between atoms: _379  and  _381
REMARK  165  A    between atoms: _381  and  _382
REMARK  166  A    between atoms: _381  and  _384
REMARK  167  A    between atoms: _384  and  _385
REMARK  168  A    between atoms: _388  and  _390
REMARK  169  A    between atoms: _390  and  _391
REMARK  170  A    between atoms: _390  and  _393
REMARK  171  A    between atoms: _393  and  _394
REMARK  172  A    between atoms: _400  and  _402
REMARK  173  A    between atoms: _402  and  _403
REMARK  174  A    between atoms: _402  and  _405
REMARK  175  A    between atoms: _405  and  _406
REMARK  176  A    between atoms: _409  and  _411
REMARK  177  A    between atoms: _411  and  _412
REMARK  178  A    between atoms: _411  and  _414
REMARK  179  A    between atoms: _414  and  _415
REMARK  180  A    between atoms: _418  and  _420
REMARK  181  A    between atoms: _420  and  _421
REMARK  182  A    between atoms: _420  and  _423
REMARK  183  A    between atoms: _423  and  _424
REMARK  184  A    between atoms: _424  and  _425
REMARK  185  A    between atoms: _428  and  _430
REMARK  186  A    between atoms: _430  and  _431
REMARK  187  A    between atoms: _430  and  _433
REMARK  188  A    between atoms: _433  and  _434
REMARK  189  A    between atoms: _439  and  _440
REMARK  190  A    between atoms: _442  and  _444
REMARK  191  A    between atoms: _444  and  _445
REMARK  192  A    between atoms: _444  and  _447
REMARK  193  A    between atoms: _447  and  _448
REMARK  194  A    between atoms: _451  and  _453
REMARK  195  A    between atoms: _453  and  _454
REMARK  196  A    between atoms: _453  and  _456
REMARK  197  A    between atoms: _456  and  _457
REMARK  198  A    between atoms: _457  and  _458
REMARK  199  A    between atoms: _463  and  _465
REMARK  200  A    between atoms: _465  and  _466
REMARK  201  A    between atoms: _465  and  _468
REMARK  202  A    between atoms: _468  and  _469
REMARK  203  A    between atoms: _474  and  _475
REMARK  204  A    between atoms: _477  and  _479
REMARK  205  A    between atoms: _479  and  _480
REMARK  206  A    between atoms: _479  and  _482
REMARK  207  A    between atoms: _482  and  _483
REMARK  208  A    between atoms: _486  and  _488
REMARK  209  A    between atoms: _488  and  _489
REMARK  210  A    between atoms: _488  and  _491
REMARK  211  A    between atoms: _491  and  _492
REMARK  212  A    between atoms: _497  and  _498
REMARK  213  A    between atoms: _500  and  _502
REMARK  214  A    between atoms: _502  and  _503
REMARK  215  A    between atoms: _502  and  _505
REMARK  216  A    between atoms: _505  and  _506
REMARK  217  A    between atoms: _511  and  _512
REMARK  218  A    between atoms: _515  and  _516
REMARK  219  A    between atoms: _521  and  _523
REMARK  220  A    between atoms: _523  and  _524
REMARK  221  A    between atoms: _523  and  _526
REMARK  222  A    between atoms: _526  and  _527
REMARK  223  A    between atoms: _530  and  _532
REMARK  224  A    between atoms: _532  and  _533
REMARK  225  A    between atoms: _532  and  _535
REMARK  226  A    between atoms: _535  and  _536
REMARK                            x       y       z     vdW  Elec       q    Type
REMARK                         _______ _______ _______ _____ _____    ______ ____
ROOT
ATOM      1  O   HOH     1      25.403  25.299  29.069  0.00  0.00    +0.000 OA
ENDROOT
TORSDOF 0
REMARK  Name = ../refined-set-2016/3aaq/3aaq_pocket.pdb
REMARK  226 active torsions:
REMARK  status: ('A' for Active; 'I' for Inactive)
REMARK    1  A    between atoms: _1  and  _3
REMARK    2  A    between atoms: _3  and  _4
REMARK    3  A    between atoms: _3  and  _6
REMARK    4  A    between atoms: _6  and  _7
REMARK    5  A    between atoms: _10  and  _12
REMARK    6  A    between atoms: _12  and  _13
REMARK    7  A    between atoms: _16  and  _18
REMARK    8  A    between atoms: _18  and  _19
REMARK    9  A    between atoms: _21  and  _23
REMARK   10  A    between atoms: _23  and  _24
REMARK   11  A    between atoms: _23  and  _26
REMARK   12  A    between atoms: _26  and  _27
REMARK   13  A    between atoms: _29  and  _31
REMARK   14  A    between atoms: _31  and  _32
REMARK   15  A    between atoms: _31  and  _34
REMARK   16  A    between atoms: _34  and  _35
REMARK   17  A    between atoms: _38  and  _40
REMARK   18  A    between atoms: _40  and  _41
REMARK   19  A    between atoms: _43  and  _45
REMARK   20  A    between atoms: _45  and  _46
REMARK   21  A    between atoms: _45  and  _48
REMARK   22  A    between atoms: _48  and  _49
REMARK   23  A    between atoms: _51  and  _53
REMARK   24  A    between atoms: _53  and  _54
REMARK   25  A    between atoms: _53  and  _56
REMARK   26  A    between atoms: _56  and  _57
REMARK   27  A    between atoms: _57  and  _58
REMARK   28  A    between atoms: _58  and  _59
REMARK   29  A    between atoms: _68  and  _70
REMARK   30  A    between atoms: _70  and  _71
REMARK   31  A    between atoms: _70  and  _73
REMARK   32  A    between atoms: _73  and  _74
REMARK   33  A    between atoms: _74  and  _75
REMARK   34  A    between atoms: _75  and  _76
REMARK   35  A    between atoms: _76  and  _77
REMARK   36  A    between atoms: _81  and  _83
REMARK   37  A    between atoms: _83  and  _84
REMARK   38  A    between atoms: _83  and  _86
REMARK   39  A    between atoms: _86  and  _87
REMARK   40  A    between atoms: _90  and  _92
REMARK   41  A    between atoms: _92  and  _93
REMARK   42  A    between atoms: _92  and  _95
REMARK   43  A    between atoms: _95  and  _96
REMARK   44  A    between atoms: _96  and  _97
REMARK   45  A    between atoms: _97  and  _98
REMARK   46  A    between atoms: _98  and  _99
REMARK   47  A    between atoms: _104  and  _105
REMARK   48  A    between atoms: _110  and  _112
REMARK   49  A    between atoms: _112  and  _113
REMARK   50  A    between atoms: _115  and  _117
REMARK   51  A    between atoms: _117  and  _118
REMARK   52  A    between atoms: _117  and  _120
REMARK   53  A    between atoms: _120  and  _121
REMARK   54  A    between atoms: _127  and  _129
REMARK   55  A    between atoms: _129  and  _130
REMARK   56  A    between atoms: _129  and  _132
REMARK   57  A    between atoms: _132  and  _133
REMARK   58  A    between atoms: _136  and  _138
REMARK   59  A    between atoms: _138  and  _139
REMARK   60  A    between atoms: _142  and  _144
REMARK   61  A    between atoms: _144  and  _145
REMARK   62  A    between atoms: _147  and  _149
REMARK   63  A    between atoms: _149  and  _150
REMARK   64  A    between atoms: _149  and  _152
REMARK   65  A    between atoms: _152  and  _153
REMARK   66  A    between atoms: _153  and  _154
REMARK   67  A    between atoms: _156  and  _158
REMARK   68  A    between atoms: _158  and  _159
REMARK   69  A    between atoms: _158  and  _161
REMARK   70  A    between atoms: _161  and  _162
REMARK   71  A    between atoms: _162  and  _163
REMARK   72  A    between atoms: _163  and  _164
REMARK   73  A    between atoms: _173  and  _175
REMARK   74  A    between atoms: _175  and  _176
REMARK   75  A    between atoms: _175  and  _178
REMARK   76  A    between atoms: _178  and  _179
REMARK   77  A    between atoms: _179  and  _180
REMARK   78  A    between atoms: _183  and  _185
REMARK   79  A    between atoms: _185  and  _186
REMARK   80  A    between atoms: _185  and  _188
REMARK   81  A    between atoms: _188  and  _189
REMARK   82  A    between atoms: _192  and  _194
REMARK   83  A    between atoms: _194  and  _195
REMARK   84  A    between atoms: _194  and  _197
REMARK   85  A    between atoms: _197  and  _198
REMARK   86  A    between atoms: _198  and  _199
REMARK   87  A    between atoms: _201  and  _203
REMARK   88  A    between atoms: _203  and  _204
REMARK   89  A    between atoms: _206  and  _208
REMARK   90  A    between atoms: _208  and  _209
REMARK   91  A    between atoms: _211  and  _213
REMARK   92  A    between atoms: _213  and  _214
REMARK   93  A    between atoms: _217  and  _219
REMARK   94  A    between atoms: _219  and  _220
REMARK   95  A    between atoms: _219  and  _222
REMARK   96  A    between atoms: _222  and  _223
REMARK   97  A    between atoms: _225  and  _227
REMARK   98  A    between atoms: _227  and  _228
REMARK   99  A    between atoms: _227  and  _230
REMARK  100  A    between atoms: _233  and  _235
REMARK  101  A    between atoms: _235  and  _236
REMARK  102  A    between atoms: _235  and  _238
REMARK  103  A    between atoms: _238  and  _239
REMARK  104  A    between atoms: _239  and  _240
REMARK  105  A    between atoms: _245  and  _247
REMARK  106  A    between atoms: _247  and  _248
REMARK  107  A    between atoms: _250  and  _252
REMARK  108  A    between atoms: _252  and  _253
REMARK  109  A    between atoms: _252  and  _255
REMARK  110  A    between atoms: _255  and  _256
REMARK  111  A    between atoms: _256  and  _257
REMARK  112  A    between atoms: _262  and  _264
REMARK  113  A    between atoms: _264  and  _265
REMARK  114  A    between atoms: _264  and  _267
REMARK  115  A    between atoms: _267  and  _268
REMARK  116  A    between atoms: _271  and  _273
REMARK  117  A    between atoms: _273  and  _274
REMARK  118  A    between atoms: _273  and  _276
REMARK  119  A    between atoms: _276  and  _277
REMARK  120  A    between atoms: _277  and  _278
REMARK  121  A    between atoms: _281  and  _283
REMARK  122  A    between atoms: _283  and  _284
REMARK  123  A    between atoms: _283  and  _286
REMARK  124  A    between atoms: _286  and  _287
REMARK  125  A    between atoms: _289  and  _291
REMARK  126  A    between atoms: _291  and  _292
REMARK  127  A    between atoms: _291  and  _294
REMARK  128  A    between atoms: _294  and  _295
REMARK  129  A    between atoms: _298  and  _300
REMARK  130  A    between atoms: _300  and  _301
REMARK  131  A    between atoms: _303  and  _305
REMARK  132  A    between atoms: _305  and  _306
REMARK  133  A    between atoms: _308  and  _310
REMARK  134  A    between atoms: _310  and  _311
REMARK  135  A    between atoms: _310  and  _313
REMARK  136  A    between atoms: _313  and  _314
REMARK  137  A    between atoms: _317  and  _319
REMARK  138  A    between atoms: _319  and  _320
REMARK  139  A    between atoms: _319  and  _322
REMARK  140  A    between atoms: _322  and  _323
REMARK  141  A    between atoms: _325  and  _327
REMARK  142  A    between atoms: _327  and  _328
REMARK  143  A    between atoms: _327  and  _330
REMARK  144  A    between atoms: _330  and  _331
REMARK  145  A    between atoms: _336  and  _338
REMARK  146  A    between atoms: _338  and  _339
REMARK  147  A    between atoms: _338  and  _341
REMARK  148  A    between atoms: _341  and  _342
REMARK  149  A    between atoms: _345  and  _347
REMARK  150  A    between atoms: _347  and  _348
REMARK  151  A    between atoms: _351  and  _353
REMARK  152  A    between atoms: _353  and  _354
REMARK  153  A    between atoms: _353  and  _356
REMARK  154  A    between atoms: _356  and  _357
REMARK  155  A    between atoms: _359  and  _361
REMARK  156  A    between atoms: _361  and  _362
REMARK  157  A    between atoms: _361  and  _364
REMARK  158  A    between atoms: _364  and  _365
REMARK  159  A    between atoms: _367  and  _369
REMARK  160  A    between atoms: _369  and  _370
REMARK  161  A    between atoms: _369  and  _372
REMARK  162  A    between atoms: _372  and  _373
REMARK  163  A    between atoms: _373  and  _374
REMARK  164  A    between atoms: _379  and  _381
REMARK  165  A    between atoms: _381  and  _382
REMARK  166  A    between atoms: _381  and  _384
REMARK  167  A    between atoms: _384  and  _385
REMARK  168  A    between atoms: _388  and  _390
REMARK  169  A    between atoms: _390  and  _391
REMARK  170  A    between atoms: _390  and  _393
REMARK  171  A    between atoms: _393  and  _394
REMARK  172  A    between atoms: _400  and  _402
REMARK  173  A    between atoms: _402  and  _403
REMARK  174  A    between atoms: _402  and  _405
REMARK  175  A    between atoms: _405  and  _406
REMARK  176  A    between atoms: _409  and  _411
REMARK  177  A    between atoms: _411  and  _412
REMARK  178  A    between atoms: _411  and  _414
REMARK  179  A    between atoms: _414  and  _415
REMARK  180  A    between atoms: _418  and  _420
REMARK  181  A    between atoms: _420  and  _421
REMARK  182  A    between atoms: _420  and  _423
REMARK  183  A    between atoms: _423  and  _424
REMARK  184  A    between atoms: _424  and  _425
REMARK  185  A    between atoms: _428  and  _430
REMARK  186  A    between atoms: _430  and  _431
REMARK  187  A    between atoms: _430  and  _433
REMARK  188  A    between atoms: _433  and  _434
REMARK  189  A    between atoms: _439  and  _440
REMARK  190  A    between atoms: _442  and  _444
REMARK  191  A    between atoms: _444  and  _445
REMARK  192  A    between atoms: _444  and  _447
REMARK  193  A    between atoms: _447  and  _448
REMARK  194  A    between atoms: _451  and  _453
REMARK  195  A    between atoms: _453  and  _454
REMARK  196  A    between atoms: _453  and  _456
REMARK  197  A    between atoms: _456  and  _457
REMARK  198  A    between atoms: _457  and  _458
REMARK  199  A    between atoms: _463  and  _465
REMARK  200  A    between atoms: _465  and  _466
REMARK  201  A    between atoms: _465  and  _468
REMARK  202  A    between atoms: _468  and  _469
REMARK  203  A    between atoms: _474  and  _475
REMARK  204  A    between atoms: _477  and  _479
REMARK  205  A    between atoms: _479  and  _480
REMARK  206  A    between atoms: _479  and  _482
REMARK  207  A    between atoms: _482  and  _483
REMARK  208  A    between atoms: _486  and  _488
REMARK  209  A    between atoms: _488  and  _489
REMARK  210  A    between atoms: _488  and  _491
REMARK  211  A    between atoms: _491  and  _492
REMARK  212  A    between atoms: _497  and  _498
REMARK  213  A    between atoms: _500  and  _502
REMARK  214  A    between atoms: _502  and  _503
REMARK  215  A    between atoms: _502  and  _505
REMARK  216  A    between atoms: _505  and  _506
REMARK  217  A    between atoms: _511  and  _512
REMARK  218  A    between atoms: _515  and  _516
REMARK  219  A    between atoms: _521  and  _523
REMARK  220  A    between atoms: _523  and  _524
REMARK  221  A    between atoms: _523  and  _526
REMARK  222  A    between atoms: _526  and  _527
REMARK  223  A    between atoms: _530  and  _532
REMARK  224  A    between atoms: _532  and  _533
REMARK  225  A    between atoms: _532  and  _535
REMARK  226  A    between atoms: _535  and  _536
REMARK                            x       y       z     vdW  Elec       q    Type
REMARK                         _______ _______ _______ _____ _____    ______ ____
ROOT
ATOM      1  O   HOH     1      27.125  33.041  32.683  0.00  0.00    +0.000 OA
ENDROOT
TORSDOF 0
REMARK  Name = ../refined-set-2016/3aaq/3aaq_pocket.pdb
REMARK  226 active torsions:
REMARK  status: ('A' for Active; 'I' for Inactive)
REMARK    1  A    between atoms: _1  and  _3
REMARK    2  A    between atoms: _3  and  _4
REMARK    3  A    between atoms: _3  and  _6
REMARK    4  A    between atoms: _6  and  _7
REMARK    5  A    between atoms: _10  and  _12
REMARK    6  A    between atoms: _12  and  _13
REMARK    7  A    between atoms: _16  and  _18
REMARK    8  A    between atoms: _18  and  _19
REMARK    9  A    between atoms: _21  and  _23
REMARK   10  A    between atoms: _23  and  _24
REMARK   11  A    between atoms: _23  and  _26
REMARK   12  A    between atoms: _26  and  _27
REMARK   13  A    between atoms: _29  and  _31
REMARK   14  A    between atoms: _31  and  _32
REMARK   15  A    between atoms: _31  and  _34
REMARK   16  A    between atoms: _34  and  _35
REMARK   17  A    between atoms: _38  and  _40
REMARK   18  A    between atoms: _40  and  _41
REMARK   19  A    between atoms: _43  and  _45
REMARK   20  A    between atoms: _45  and  _46
REMARK   21  A    between atoms: _45  and  _48
REMARK   22  A    between atoms: _48  and  _49
REMARK   23  A    between atoms: _51  and  _53
REMARK   24  A    between atoms: _53  and  _54
REMARK   25  A    between atoms: _53  and  _56
REMARK   26  A    between atoms: _56  and  _57
REMARK   27  A    between atoms: _57  and  _58
REMARK   28  A    between atoms: _58  and  _59
REMARK   29  A    between atoms: _68  and  _70
REMARK   30  A    between atoms: _70  and  _71
REMARK   31  A    between atoms: _70  and  _73
REMARK   32  A    between atoms: _73  and  _74
REMARK   33  A    between atoms: _74  and  _75
REMARK   34  A    between atoms: _75  and  _76
REMARK   35  A    between atoms: _76  and  _77
REMARK   36  A    between atoms: _81  and  _83
REMARK   37  A    between atoms: _83  and  _84
REMARK   38  A    between atoms: _83  and  _86
REMARK   39  A    between atoms: _86  and  _87
REMARK   40  A    between atoms: _90  and  _92
REMARK   41  A    between atoms: _92  and  _93
REMARK   42  A    between atoms: _92  and  _95
REMARK   43  A    between atoms: _95  and  _96
REMARK   44  A    between atoms: _96  and  _97
REMARK   45  A    between atoms: _97  and  _98
REMARK   46  A    between atoms: _98  and  _99
REMARK   47  A    between atoms: _104  and  _105
REMARK   48  A    between atoms: _110  and  _112
REMARK   49  A    between atoms: _112  and  _113
REMARK   50  A    between atoms: _115  and  _117
REMARK   51  A    between atoms: _117  and  _118
REMARK   52  A    between atoms: _117  and  _120
REMARK   53  A    between atoms: _120  and  _121
REMARK   54  A    between atoms: _127  and  _129
REMARK   55  A    between atoms: _129  and  _130
REMARK   56  A    between atoms: _129  and  _132
REMARK   57  A    between atoms: _132  and  _133
REMARK   58  A    between atoms: _136  and  _138
REMARK   59  A    between atoms: _138  and  _139
REMARK   60  A    between atoms: _142  and  _144
REMARK   61  A    between atoms: _144  and  _145
REMARK   62  A    between atoms: _147  and  _149
REMARK   63  A    between atoms: _149  and  _150
REMARK   64  A    between atoms: _149  and  _152
REMARK   65  A    between atoms: _152  and  _153
REMARK   66  A    between atoms: _153  and  _154
REMARK   67  A    between atoms: _156  and  _158
REMARK   68  A    between atoms: _158  and  _159
REMARK   69  A    between atoms: _158  and  _161
REMARK   70  A    between atoms: _161  and  _162
REMARK   71  A    between atoms: _162  and  _163
REMARK   72  A    between atoms: _163  and  _164
REMARK   73  A    between atoms: _173  and  _175
REMARK   74  A    between atoms: _175  and  _176
REMARK   75  A    between atoms: _175  and  _178
REMARK   76  A    between atoms: _178  and  _179
REMARK   77  A    between atoms: _179  and  _180
REMARK   78  A    between atoms: _183  and  _185
REMARK   79  A    between atoms: _185  and  _186
REMARK   80  A    between atoms: _185  and  _188
REMARK   81  A    between atoms: _188  and  _189
REMARK   82  A    between atoms: _192  and  _194
REMARK   83  A    between atoms: _194  and  _195
REMARK   84  A    between atoms: _194  and  _197
REMARK   85  A    between atoms: _197  and  _198
REMARK   86  A    between atoms: _198  and  _199
REMARK   87  A    between atoms: _201  and  _203
REMARK   88  A    between atoms: _203  and  _204
REMARK   89  A    between atoms: _206  and  _208
REMARK   90  A    between atoms: _208  and  _209
REMARK   91  A    between atoms: _211  and  _213
REMARK   92  A    between atoms: _213  and  _214
REMARK   93  A    between atoms: _217  and  _219
REMARK   94  A    between atoms: _219  and  _220
REMARK   95  A    between atoms: _219  and  _222
REMARK   96  A    between atoms: _222  and  _223
REMARK   97  A    between atoms: _225  and  _227
REMARK   98  A    between atoms: _227  and  _228
REMARK   99  A    between atoms: _227  and  _230
REMARK  100  A    between atoms: _233  and  _235
REMARK  101  A    between atoms: _235  and  _236
REMARK  102  A    between atoms: _235  and  _238
REMARK  103  A    between atoms: _238  and  _239
REMARK  104  A    between atoms: _239  and  _240
REMARK  105  A    between atoms: _245  and  _247
REMARK  106  A    between atoms: _247  and  _248
REMARK  107  A    between atoms: _250  and  _252
REMARK  108  A    between atoms: _252  and  _253
REMARK  109  A    between atoms: _252  and  _255
REMARK  110  A    between atoms: _255  and  _256
REMARK  111  A    between atoms: _256  and  _257
REMARK  112  A    between atoms: _262  and  _264
REMARK  113  A    between atoms: _264  and  _265
REMARK  114  A    between atoms: _264  and  _267
REMARK  115  A    between atoms: _267  and  _268
REMARK  116  A    between atoms: _271  and  _273
REMARK  117  A    between atoms: _273  and  _274
REMARK  118  A    between atoms: _273  and  _276
REMARK  119  A    between atoms: _276  and  _277
REMARK  120  A    between atoms: _277  and  _278
REMARK  121  A    between atoms: _281  and  _283
REMARK  122  A    between atoms: _283  and  _284
REMARK  123  A    between atoms: _283  and  _286
REMARK  124  A    between atoms: _286  and  _287
REMARK  125  A    between atoms: _289  and  _291
REMARK  126  A    between atoms: _291  and  _292
REMARK  127  A    between atoms: _291  and  _294
REMARK  128  A    between atoms: _294  and  _295
REMARK  129  A    between atoms: _298  and  _300
REMARK  130  A    between atoms: _300  and  _301
REMARK  131  A    between atoms: _303  and  _305
REMARK  132  A    between atoms: _305  and  _306
REMARK  133  A    between atoms: _308  and  _310
REMARK  134  A    between atoms: _310  and  _311
REMARK  135  A    between atoms: _310  and  _313
REMARK  136  A    between atoms: _313  and  _314
REMARK  137  A    between atoms: _317  and  _319
REMARK  138  A    between atoms: _319  and  _320
REMARK  139  A    between atoms: _319  and  _322
REMARK  140  A    between atoms: _322  and  _323
REMARK  141  A    between atoms: _325  and  _327
REMARK  142  A    between atoms: _327  and  _328
REMARK  143  A    between atoms: _327  and  _330
REMARK  144  A    between atoms: _330  and  _331
REMARK  145  A    between atoms: _336  and  _338
REMARK  146  A    between atoms: _338  and  _339
REMARK  147  A    between atoms: _338  and  _341
REMARK  148  A    between atoms: _341  and  _342
REMARK  149  A    between atoms: _345  and  _347
REMARK  150  A    between atoms: _347  and  _348
REMARK  151  A    between atoms: _351  and  _353
REMARK  152  A    between atoms: _353  and  _354
REMARK  153  A    between atoms: _353  and  _356
REMARK  154  A    between atoms: _356  and  _357
REMARK  155  A    between atoms: _359  and  _361
REMARK  156  A    between atoms: _361  and  _362
REMARK  157  A    between atoms: _361  and  _364
REMARK  158  A    between atoms: _364  and  _365
REMARK  159  A    between atoms: _367  and  _369
REMARK  160  A    between atoms: _369  and  _370
REMARK  161  A    between atoms: _369  and  _372
REMARK  162  A    between atoms: _372  and  _373
REMARK  163  A    between atoms: _373  and  _374
REMARK  164  A    between atoms: _379  and  _381
REMARK  165  A    between atoms: _381  and  _382
REMARK  166  A    between atoms: _381  and  _384
REMARK  167  A    between atoms: _384  and  _385
REMARK  168  A    between atoms: _388  and  _390
REMARK  169  A    between atoms: _390  and  _391
REMARK  170  A    between atoms: _390  and  _393
REMARK  171  A    between atoms: _393  and  _394
REMARK  172  A    between atoms: _400  and  _402
REMARK  173  A    between atoms: _402  and  _403
REMARK  174  A    between atoms: _402  and  _405
REMARK  175  A    between atoms: _405  and  _406
REMARK  176  A    between atoms: _409  and  _411
REMARK  177  A    between atoms: _411  and  _412
REMARK  178  A    between atoms: _411  and  _414
REMARK  179  A    between atoms: _414  and  _415
REMARK  180  A    between atoms: _418  and  _420
REMARK  181  A    between atoms: _420  and  _421
REMARK  182  A    between atoms: _420  and  _423
REMARK  183  A    between atoms: _423  and  _424
REMARK  184  A    between atoms: _424  and  _425
REMARK  185  A    between atoms: _428  and  _430
REMARK  186  A    between atoms: _430  and  _431
REMARK  187  A    between atoms: _430  and  _433
REMARK  188  A    between atoms: _433  and  _434
REMARK  189  A    between atoms: _439  and  _440
REMARK  190  A    between atoms: _442  and  _444
REMARK  191  A    between atoms: _444  and  _445
REMARK  192  A    between atoms: _444  and  _447
REMARK  193  A    between atoms: _447  and  _448
REMARK  194  A    between atoms: _451  and  _453
REMARK  195  A    between atoms: _453  and  _454
REMARK  196  A    between atoms: _453  and  _456
REMARK  197  A    between atoms: _456  and  _457
REMARK  198  A    between atoms: _457  and  _458
REMARK  199  A    between atoms: _463  and  _465
REMARK  200  A    between atoms: _465  and  _466
REMARK  201  A    between atoms: _465  and  _468
REMARK  202  A    between atoms: _468  and  _469
REMARK  203  A    between atoms: _474  and  _475
REMARK  204  A    between atoms: _477  and  _479
REMARK  205  A    between atoms: _479  and  _480
REMARK  206  A    between atoms: _479  and  _482
REMARK  207  A    between atoms: _482  and  _483
REMARK  208  A    between atoms: _486  and  _488
REMARK  209  A    between atoms: _488  and  _489
REMARK  210  A    between atoms: _488  and  _491
REMARK  211  A    between atoms: _491  and  _492
REMARK  212  A    between atoms: _497  and  _498
REMARK  213  A    between atoms: _500  and  _502
REMARK  214  A    between atoms: _502  and  _503
REMARK  215  A    between atoms: _502  and  _505
REMARK  216  A    between atoms: _505  and  _506
REMARK  217  A    between atoms: _511  and  _512
REMARK  218  A    between atoms: _515  and  _516
REMARK  219  A    between atoms: _521  and  _523
REMARK  220  A    between atoms: _523  and  _524
REMARK  221  A    between atoms: _523  and  _526
REMARK  222  A    between atoms: _526  and  _527
REMARK  223  A    between atoms: _530  and  _532
REMARK  224  A    between atoms: _532  and  _533
REMARK  225  A    between atoms: _532  and  _535
REMARK  226  A    between atoms: _535  and  _536
REMARK                            x       y       z     vdW  Elec       q    Type
REMARK                         _______ _______ _______ _____ _____    ______ ____
ROOT
ATOM      1  O   HOH     1      23.574  30.608  24.401  0.00  0.00    +0.000 OA
ENDROOT
TORSDOF 0
REMARK  Name = ../refined-set-2016/3aaq/3aaq_pocket.pdb
REMARK  226 active torsions:
REMARK  status: ('A' for Active; 'I' for Inactive)
REMARK    1  A    between atoms: _1  and  _3
REMARK    2  A    between atoms: _3  and  _4
REMARK    3  A    between atoms: _3  and  _6
REMARK    4  A    between atoms: _6  and  _7
REMARK    5  A    between atoms: _10  and  _12
REMARK    6  A    between atoms: _12  and  _13
REMARK    7  A    between atoms: _16  and  _18
REMARK    8  A    between atoms: _18  and  _19
REMARK    9  A    between atoms: _21  and  _23
REMARK   10  A    between atoms: _23  and  _24
REMARK   11  A    between atoms: _23  and  _26
REMARK   12  A    between atoms: _26  and  _27
REMARK   13  A    between atoms: _29  and  _31
REMARK   14  A    between atoms: _31  and  _32
REMARK   15  A    between atoms: _31  and  _34
REMARK   16  A    between atoms: _34  and  _35
REMARK   17  A    between atoms: _38  and  _40
REMARK   18  A    between atoms: _40  and  _41
REMARK   19  A    between atoms: _43  and  _45
REMARK   20  A    between atoms: _45  and  _46
REMARK   21  A    between atoms: _45  and  _48
REMARK   22  A    between atoms: _48  and  _49
REMARK   23  A    between atoms: _51  and  _53
REMARK   24  A    between atoms: _53  and  _54
REMARK   25  A    between atoms: _53  and  _56
REMARK   26  A    between atoms: _56  and  _57
REMARK   27  A    between atoms: _57  and  _58
REMARK   28  A    between atoms: _58  and  _59
REMARK   29  A    between atoms: _68  and  _70
REMARK   30  A    between atoms: _70  and  _71
REMARK   31  A    between atoms: _70  and  _73
REMARK   32  A    between atoms: _73  and  _74
REMARK   33  A    between atoms: _74  and  _75
REMARK   34  A    between atoms: _75  and  _76
REMARK   35  A    between atoms: _76  and  _77
REMARK   36  A    between atoms: _81  and  _83
REMARK   37  A    between atoms: _83  and  _84
REMARK   38  A    between atoms: _83  and  _86
REMARK   39  A    between atoms: _86  and  _87
REMARK   40  A    between atoms: _90  and  _92
REMARK   41  A    between atoms: _92  and  _93
REMARK   42  A    between atoms: _92  and  _95
REMARK   43  A    between atoms: _95  and  _96
REMARK   44  A    between atoms: _96  and  _97
REMARK   45  A    between atoms: _97  and  _98
REMARK   46  A    between atoms: _98  and  _99
REMARK   47  A    between atoms: _104  and  _105
REMARK   48  A    between atoms: _110  and  _112
REMARK   49  A    between atoms: _112  and  _113
REMARK   50  A    between atoms: _115  and  _117
REMARK   51  A    between atoms: _117  and  _118
REMARK   52  A    between atoms: _117  and  _120
REMARK   53  A    between atoms: _120  and  _121
REMARK   54  A    between atoms: _127  and  _129
REMARK   55  A    between atoms: _129  and  _130
REMARK   56  A    between atoms: _129  and  _132
REMARK   57  A    between atoms: _132  and  _133
REMARK   58  A    between atoms: _136  and  _138
REMARK   59  A    between atoms: _138  and  _139
REMARK   60  A    between atoms: _142  and  _144
REMARK   61  A    between atoms: _144  and  _145
REMARK   62  A    between atoms: _147  and  _149
REMARK   63  A    between atoms: _149  and  _150
REMARK   64  A    between atoms: _149  and  _152
REMARK   65  A    between atoms: _152  and  _153
REMARK   66  A    between atoms: _153  and  _154
REMARK   67  A    between atoms: _156  and  _158
REMARK   68  A    between atoms: _158  and  _159
REMARK   69  A    between atoms: _158  and  _161
REMARK   70  A    between atoms: _161  and  _162
REMARK   71  A    between atoms: _162  and  _163
REMARK   72  A    between atoms: _163  and  _164
REMARK   73  A    between atoms: _173  and  _175
REMARK   74  A    between atoms: _175  and  _176
REMARK   75  A    between atoms: _175  and  _178
REMARK   76  A    between atoms: _178  and  _179
REMARK   77  A    between atoms: _179  and  _180
REMARK   78  A    between atoms: _183  and  _185
REMARK   79  A    between atoms: _185  and  _186
REMARK   80  A    between atoms: _185  and  _188
REMARK   81  A    between atoms: _188  and  _189
REMARK   82  A    between atoms: _192  and  _194
REMARK   83  A    between atoms: _194  and  _195
REMARK   84  A    between atoms: _194  and  _197
REMARK   85  A    between atoms: _197  and  _198
REMARK   86  A    between atoms: _198  and  _199
REMARK   87  A    between atoms: _201  and  _203
REMARK   88  A    between atoms: _203  and  _204
REMARK   89  A    between atoms: _206  and  _208
REMARK   90  A    between atoms: _208  and  _209
REMARK   91  A    between atoms: _211  and  _213
REMARK   92  A    between atoms: _213  and  _214
REMARK   93  A    between atoms: _217  and  _219
REMARK   94  A    between atoms: _219  and  _220
REMARK   95  A    between atoms: _219  and  _222
REMARK   96  A    between atoms: _222  and  _223
REMARK   97  A    between atoms: _225  and  _227
REMARK   98  A    between atoms: _227  and  _228
REMARK   99  A    between atoms: _227  and  _230
REMARK  100  A    between atoms: _233  and  _235
REMARK  101  A    between atoms: _235  and  _236
REMARK  102  A    between atoms: _235  and  _238
REMARK  103  A    between atoms: _238  and  _239
REMARK  104  A    between atoms: _239  and  _240
REMARK  105  A    between atoms: _245  and  _247
REMARK  106  A    between atoms: _247  and  _248
REMARK  107  A    between atoms: _250  and  _252
REMARK  108  A    between atoms: _252  and  _253
REMARK  109  A    between atoms: _252  and  _255
REMARK  110  A    between atoms: _255  and  _256
REMARK  111  A    between atoms: _256  and  _257
REMARK  112  A    between atoms: _262  and  _264
REMARK  113  A    between atoms: _264  and  _265
REMARK  114  A    between atoms: _264  and  _267
REMARK  115  A    between atoms: _267  and  _268
REMARK  116  A    between atoms: _271  and  _273
REMARK  117  A    between atoms: _273  and  _274
REMARK  118  A    between atoms: _273  and  _276
REMARK  119  A    between atoms: _276  and  _277
REMARK  120  A    between atoms: _277  and  _278
REMARK  121  A    between atoms: _281  and  _283
REMARK  122  A    between atoms: _283  and  _284
REMARK  123  A    between atoms: _283  and  _286
REMARK  124  A    between atoms: _286  and  _287
REMARK  125  A    between atoms: _289  and  _291
REMARK  126  A    between atoms: _291  and  _292
REMARK  127  A    between atoms: _291  and  _294
REMARK  128  A    between atoms: _294  and  _295
REMARK  129  A    between atoms: _298  and  _300
REMARK  130  A    between atoms: _300  and  _301
REMARK  131  A    between atoms: _303  and  _305
REMARK  132  A    between atoms: _305  and  _306
REMARK  133  A    between atoms: _308  and  _310
REMARK  134  A    between atoms: _310  and  _311
REMARK  135  A    between atoms: _310  and  _313
REMARK  136  A    between atoms: _313  and  _314
REMARK  137  A    between atoms: _317  and  _319
REMARK  138  A    between atoms: _319  and  _320
REMARK  139  A    between atoms: _319  and  _322
REMARK  140  A    between atoms: _322  and  _323
REMARK  141  A    between atoms: _325  and  _327
REMARK  142  A    between atoms: _327  and  _328
REMARK  143  A    between atoms: _327  and  _330
REMARK  144  A    between atoms: _330  and  _331
REMARK  145  A    between atoms: _336  and  _338
REMARK  146  A    between atoms: _338  and  _339
REMARK  147  A    between atoms: _338  and  _341
REMARK  148  A    between atoms: _341  and  _342
REMARK  149  A    between atoms: _345  and  _347
REMARK  150  A    between atoms: _347  and  _348
REMARK  151  A    between atoms: _351  and  _353
REMARK  152  A    between atoms: _353  and  _354
REMARK  153  A    between atoms: _353  and  _356
REMARK  154  A    between atoms: _356  and  _357
REMARK  155  A    between atoms: _359  and  _361
REMARK  156  A    between atoms: _361  and  _362
REMARK  157  A    between atoms: _361  and  _364
REMARK  158  A    between atoms: _364  and  _365
REMARK  159  A    between atoms: _367  and  _369
REMARK  160  A    between atoms: _369  and  _370
REMARK  161  A    between atoms: _369  and  _372
REMARK  162  A    between atoms: _372  and  _373
REMARK  163  A    between atoms: _373  and  _374
REMARK  164  A    between atoms: _379  and  _381
REMARK  165  A    between atoms: _381  and  _382
REMARK  166  A    between atoms: _381  and  _384
REMARK  167  A    between atoms: _384  and  _385
REMARK  168  A    between atoms: _388  and  _390
REMARK  169  A    between atoms: _390  and  _391
REMARK  170  A    between atoms: _390  and  _393
REMARK  171  A    between atoms: _393  and  _394
REMARK  172  A    between atoms: _400  and  _402
REMARK  173  A    between atoms: _402  and  _403
REMARK  174  A    between atoms: _402  and  _405
REMARK  175  A    between atoms: _405  and  _406
REMARK  176  A    between atoms: _409  and  _411
REMARK  177  A    between atoms: _411  and  _412
REMARK  178  A    between atoms: _411  and  _414
REMARK  179  A    between atoms: _414  and  _415
REMARK  180  A    between atoms: _418  and  _420
REMARK  181  A    between atoms: _420  and  _421
REMARK  182  A    between atoms: _420  and  _423
REMARK  183  A    between atoms: _423  and  _424
REMARK  184  A    between atoms: _424  and  _425
REMARK  185  A    between atoms: _428  and  _430
REMARK  186  A    between atoms: _430  and  _431
REMARK  187  A    between atoms: _430  and  _433
REMARK  188  A    between atoms: _433  and  _434
REMARK  189  A    between atoms: _439  and  _440
REMARK  190  A    between atoms: _442  and  _444
REMARK  191  A    between atoms: _444  and  _445
REMARK  192  A    between atoms: _444  and  _447
REMARK  193  A    between atoms: _447  and  _448
REMARK  194  A    between atoms: _451  and  _453
REMARK  195  A    between atoms: _453  and  _454
REMARK  196  A    between atoms: _453  and  _456
REMARK  197  A    between atoms: _456  and  _457
REMARK  198  A    between atoms: _457  and  _458
REMARK  199  A    between atoms: _463  and  _465
REMARK  200  A    between atoms: _465  and  _466
REMARK  201  A    between atoms: _465  and  _468
REMARK  202  A    between atoms: _468  and  _469
REMARK  203  A    between atoms: _474  and  _475
REMARK  204  A    between atoms: _477  and  _479
REMARK  205  A    between atoms: _479  and  _480
REMARK  206  A    between atoms: _479  and  _482
REMARK  207  A    between atoms: _482  and  _483
REMARK  208  A    between atoms: _486  and  _488
REMARK  209  A    between atoms: _488  and  _489
REMARK  210  A    between atoms: _488  and  _491
REMARK  211  A    between atoms: _491  and  _492
REMARK  212  A    between atoms: _497  and  _498
REMARK  213  A    between atoms: _500  and  _502
REMARK  214  A    between atoms: _502  and  _503
REMARK  215  A    between atoms: _502  and  _505
REMARK  216  A    between atoms: _505  and  _506
REMARK  217  A    between atoms: _511  and  _512
REMARK  218  A    between atoms: _515  and  _516
REMARK  219  A    between atoms: _521  and  _523
REMARK  220  A    between atoms: _523  and  _524
REMARK  221  A    between atoms: _523  and  _526
REMARK  222  A    between atoms: _526  and  _527
REMARK  223  A    between atoms: _530  and  _532
REMARK  224  A    between atoms: _532  and  _533
REMARK  225  A    between atoms: _532  and  _535
REMARK  226  A    between atoms: _535  and  _536
REMARK                            x       y       z     vdW  Elec       q    Type
REMARK                         _______ _______ _______ _____ _____    ______ ____
ROOT
ATOM      1  O   HOH     1      25.996  33.751  23.135  0.00  0.00    +0.000 OA
ENDROOT
TORSDOF 0
REMARK  Name = ../refined-set-2016/3aaq/3aaq_pocket.pdb
REMARK  226 active torsions:
REMARK  status: ('A' for Active; 'I' for Inactive)
REMARK    1  A    between atoms: _1  and  _3
REMARK    2  A    between atoms: _3  and  _4
REMARK    3  A    between atoms: _3  and  _6
REMARK    4  A    between atoms: _6  and  _7
REMARK    5  A    between atoms: _10  and  _12
REMARK    6  A    between atoms: _12  and  _13
REMARK    7  A    between atoms: _16  and  _18
REMARK    8  A    between atoms: _18  and  _19
REMARK    9  A    between atoms: _21  and  _23
REMARK   10  A    between atoms: _23  and  _24
REMARK   11  A    between atoms: _23  and  _26
REMARK   12  A    between atoms: _26  and  _27
REMARK   13  A    between atoms: _29  and  _31
REMARK   14  A    between atoms: _31  and  _32
REMARK   15  A    between atoms: _31  and  _34
REMARK   16  A    between atoms: _34  and  _35
REMARK   17  A    between atoms: _38  and  _40
REMARK   18  A    between atoms: _40  and  _41
REMARK   19  A    between atoms: _43  and  _45
REMARK   20  A    between atoms: _45  and  _46
REMARK   21  A    between atoms: _45  and  _48
REMARK   22  A    between atoms: _48  and  _49
REMARK   23  A    between atoms: _51  and  _53
REMARK   24  A    between atoms: _53  and  _54
REMARK   25  A    between atoms: _53  and  _56
REMARK   26  A    between atoms: _56  and  _57
REMARK   27  A    between atoms: _57  and  _58
REMARK   28  A    between atoms: _58  and  _59
REMARK   29  A    between atoms: _68  and  _70
REMARK   30  A    between atoms: _70  and  _71
REMARK   31  A    between atoms: _70  and  _73
REMARK   32  A    between atoms: _73  and  _74
REMARK   33  A    between atoms: _74  and  _75
REMARK   34  A    between atoms: _75  and  _76
REMARK   35  A    between atoms: _76  and  _77
REMARK   36  A    between atoms: _81  and  _83
REMARK   37  A    between atoms: _83  and  _84
REMARK   38  A    between atoms: _83  and  _86
REMARK   39  A    between atoms: _86  and  _87
REMARK   40  A    between atoms: _90  and  _92
REMARK   41  A    between atoms: _92  and  _93
REMARK   42  A    between atoms: _92  and  _95
REMARK   43  A    between atoms: _95  and  _96
REMARK   44  A    between atoms: _96  and  _97
REMARK   45  A    between atoms: _97  and  _98
REMARK   46  A    between atoms: _98  and  _99
REMARK   47  A    between atoms: _104  and  _105
REMARK   48  A    between atoms: _110  and  _112
REMARK   49  A    between atoms: _112  and  _113
REMARK   50  A    between atoms: _115  and  _117
REMARK   51  A    between atoms: _117  and  _118
REMARK   52  A    between atoms: _117  and  _120
REMARK   53  A    between atoms: _120  and  _121
REMARK   54  A    between atoms: _127  and  _129
REMARK   55  A    between atoms: _129  and  _130
REMARK   56  A    between atoms: _129  and  _132
REMARK   57  A    between atoms: _132  and  _133
REMARK   58  A    between atoms: _136  and  _138
REMARK   59  A    between atoms: _138  and  _139
REMARK   60  A    between atoms: _142  and  _144
REMARK   61  A    between atoms: _144  and  _145
REMARK   62  A    between atoms: _147  and  _149
REMARK   63  A    between atoms: _149  and  _150
REMARK   64  A    between atoms: _149  and  _152
REMARK   65  A    between atoms: _152  and  _153
REMARK   66  A    between atoms: _153  and  _154
REMARK   67  A    between atoms: _156  and  _158
REMARK   68  A    between atoms: _158  and  _159
REMARK   69  A    between atoms: _158  and  _161
REMARK   70  A    between atoms: _161  and  _162
REMARK   71  A    between atoms: _162  and  _163
REMARK   72  A    between atoms: _163  and  _164
REMARK   73  A    between atoms: _173  and  _175
REMARK   74  A    between atoms: _175  and  _176
REMARK   75  A    between atoms: _175  and  _178
REMARK   76  A    between atoms: _178  and  _179
REMARK   77  A    between atoms: _179  and  _180
REMARK   78  A    between atoms: _183  and  _185
REMARK   79  A    between atoms: _185  and  _186
REMARK   80  A    between atoms: _185  and  _188
REMARK   81  A    between atoms: _188  and  _189
REMARK   82  A    between atoms: _192  and  _194
REMARK   83  A    between atoms: _194  and  _195
REMARK   84  A    between atoms: _194  and  _197
REMARK   85  A    between atoms: _197  and  _198
REMARK   86  A    between atoms: _198  and  _199
REMARK   87  A    between atoms: _201  and  _203
REMARK   88  A    between atoms: _203  and  _204
REMARK   89  A    between atoms: _206  and  _208
REMARK   90  A    between atoms: _208  and  _209
REMARK   91  A    between atoms: _211  and  _213
REMARK   92  A    between atoms: _213  and  _214
REMARK   93  A    between atoms: _217  and  _219
REMARK   94  A    between atoms: _219  and  _220
REMARK   95  A    between atoms: _219  and  _222
REMARK   96  A    between atoms: _222  and  _223
REMARK   97  A    between atoms: _225  and  _227
REMARK   98  A    between atoms: _227  and  _228
REMARK   99  A    between atoms: _227  and  _230
REMARK  100  A    between atoms: _233  and  _235
REMARK  101  A    between atoms: _235  and  _236
REMARK  102  A    between atoms: _235  and  _238
REMARK  103  A    between atoms: _238  and  _239
REMARK  104  A    between atoms: _239  and  _240
REMARK  105  A    between atoms: _245  and  _247
REMARK  106  A    between atoms: _247  and  _248
REMARK  107  A    between atoms: _250  and  _252
REMARK  108  A    between atoms: _252  and  _253
REMARK  109  A    between atoms: _252  and  _255
REMARK  110  A    between atoms: _255  and  _256
REMARK  111  A    between atoms: _256  and  _257
REMARK  112  A    between atoms: _262  and  _264
REMARK  113  A    between atoms: _264  and  _265
REMARK  114  A    between atoms: _264  and  _267
REMARK  115  A    between atoms: _267  and  _268
REMARK  116  A    between atoms: _271  and  _273
REMARK  117  A    between atoms: _273  and  _274
REMARK  118  A    between atoms: _273  and  _276
REMARK  119  A    between atoms: _276  and  _277
REMARK  120  A    between atoms: _277  and  _278
REMARK  121  A    between atoms: _281  and  _283
REMARK  122  A    between atoms: _283  and  _284
REMARK  123  A    between atoms: _283  and  _286
REMARK  124  A    between atoms: _286  and  _287
REMARK  125  A    between atoms: _289  and  _291
REMARK  126  A    between atoms: _291  and  _292
REMARK  127  A    between atoms: _291  and  _294
REMARK  128  A    between atoms: _294  and  _295
REMARK  129  A    between atoms: _298  and  _300
REMARK  130  A    between atoms: _300  and  _301
REMARK  131  A    between atoms: _303  and  _305
REMARK  132  A    between atoms: _305  and  _306
REMARK  133  A    between atoms: _308  and  _310
REMARK  134  A    between atoms: _310  and  _311
REMARK  135  A    between atoms: _310  and  _313
REMARK  136  A    between atoms: _313  and  _314
REMARK  137  A    between atoms: _317  and  _319
REMARK  138  A    between atoms: _319  and  _320
REMARK  139  A    between atoms: _319  and  _322
REMARK  140  A    between atoms: _322  and  _323
REMARK  141  A    between atoms: _325  and  _327
REMARK  142  A    between atoms: _327  and  _328
REMARK  143  A    between atoms: _327  and  _330
REMARK  144  A    between atoms: _330  and  _331
REMARK  145  A    between atoms: _336  and  _338
REMARK  146  A    between atoms: _338  and  _339
REMARK  147  A    between atoms: _338  and  _341
REMARK  148  A    between atoms: _341  and  _342
REMARK  149  A    between atoms: _345  and  _347
REMARK  150  A    between atoms: _347  and  _348
REMARK  151  A    between atoms: _351  and  _353
REMARK  152  A    between atoms: _353  and  _354
REMARK  153  A    between atoms: _353  and  _356
REMARK  154  A    between atoms: _356  and  _357
REMARK  155  A    between atoms: _359  and  _361
REMARK  156  A    between atoms: _361  and  _362
REMARK  157  A    between atoms: _361  and  _364
REMARK  158  A    between atoms: _364  and  _365
REMARK  159  A    between atoms: _367  and  _369
REMARK  160  A    between atoms: _369  and  _370
REMARK  161  A    between atoms: _369  and  _372
REMARK  162  A    between atoms: _372  and  _373
REMARK  163  A    between atoms: _373  and  _374
REMARK  164  A    between atoms: _379  and  _381
REMARK  165  A    between atoms: _381  and  _382
REMARK  166  A    between atoms: _381  and  _384
REMARK  167  A    between atoms: _384  and  _385
REMARK  168  A    between atoms: _388  and  _390
REMARK  169  A    between atoms: _390  and  _391
REMARK  170  A    between atoms: _390  and  _393
REMARK  171  A    between atoms: _393  and  _394
REMARK  172  A    between atoms: _400  and  _402
REMARK  173  A    between atoms: _402  and  _403
REMARK  174  A    between atoms: _402  and  _405
REMARK  175  A    between atoms: _405  and  _406
REMARK  176  A    between atoms: _409  and  _411
REMARK  177  A    between atoms: _411  and  _412
REMARK  178  A    between atoms: _411  and  _414
REMARK  179  A    between atoms: _414  and  _415
REMARK  180  A    between atoms: _418  and  _420
REMARK  181  A    between atoms: _420  and  _421
REMARK  182  A    between atoms: _420  and  _423
REMARK  183  A    between atoms: _423  and  _424
REMARK  184  A    between atoms: _424  and  _425
REMARK  185  A    between atoms: _428  and  _430
REMARK  186  A    between atoms: _430  and  _431
REMARK  187  A    between atoms: _430  and  _433
REMARK  188  A    between atoms: _433  and  _434
REMARK  189  A    between atoms: _439  and  _440
REMARK  190  A    between atoms: _442  and  _444
REMARK  191  A    between atoms: _444  and  _445
REMARK  192  A    between atoms: _444  and  _447
REMARK  193  A    between atoms: _447  and  _448
REMARK  194  A    between atoms: _451  and  _453
REMARK  195  A    between atoms: _453  and  _454
REMARK  196  A    between atoms: _453  and  _456
REMARK  197  A    between atoms: _456  and  _457
REMARK  198  A    between atoms: _457  and  _458
REMARK  199  A    between atoms: _463  and  _465
REMARK  200  A    between atoms: _465  and  _466
REMARK  201  A    between atoms: _465  and  _468
REMARK  202  A    between atoms: _468  and  _469
REMARK  203  A    between atoms: _474  and  _475
REMARK  204  A    between atoms: _477  and  _479
REMARK  205  A    between atoms: _479  and  _480
REMARK  206  A    between atoms: _479  and  _482
REMARK  207  A    between atoms: _482  and  _483
REMARK  208  A    between atoms: _486  and  _488
REMARK  209  A    between atoms: _488  and  _489
REMARK  210  A    between atoms: _488  and  _491
REMARK  211  A    between atoms: _491  and  _492
REMARK  212  A    between atoms: _497  and  _498
REMARK  213  A    between atoms: _500  and  _502
REMARK  214  A    between atoms: _502  and  _503
REMARK  215  A    between atoms: _502  and  _505
REMARK  216  A    between atoms: _505  and  _506
REMARK  217  A    between atoms: _511  and  _512
REMARK  218  A    between atoms: _515  and  _516
REMARK  219  A    between atoms: _521  and  _523
REMARK  220  A    between atoms: _523  and  _524
REMARK  221  A    between atoms: _523  and  _526
REMARK  222  A    between atoms: _526  and  _527
REMARK  223  A    between atoms: _530  and  _532
REMARK  224  A    between atoms: _532  and  _533
REMARK  225  A    between atoms: _532  and  _535
REMARK  226  A    between atoms: _535  and  _536
REMARK                            x       y       z     vdW  Elec       q    Type
REMARK                         _______ _______ _______ _____ _____    ______ ____
ROOT
ATOM      1  O   HOH     1      28.084  29.795  36.049  0.00  0.00    +0.000 OA
ENDROOT
TORSDOF 0
REMARK  Name = ../refined-set-2016/3aaq/3aaq_pocket.pdb
REMARK  226 active torsions:
REMARK  status: ('A' for Active; 'I' for Inactive)
REMARK    1  A    between atoms: _1  and  _3
REMARK    2  A    between atoms: _3  and  _4
REMARK    3  A    between atoms: _3  and  _6
REMARK    4  A    between atoms: _6  and  _7
REMARK    5  A    between atoms: _10  and  _12
REMARK    6  A    between atoms: _12  and  _13
REMARK    7  A    between atoms: _16  and  _18
REMARK    8  A    between atoms: _18  and  _19
REMARK    9  A    between atoms: _21  and  _23
REMARK   10  A    between atoms: _23  and  _24
REMARK   11  A    between atoms: _23  and  _26
REMARK   12  A    between atoms: _26  and  _27
REMARK   13  A    between atoms: _29  and  _31
REMARK   14  A    between atoms: _31  and  _32
REMARK   15  A    between atoms: _31  and  _34
REMARK   16  A    between atoms: _34  and  _35
REMARK   17  A    between atoms: _38  and  _40
REMARK   18  A    between atoms: _40  and  _41
REMARK   19  A    between atoms: _43  and  _45
REMARK   20  A    between atoms: _45  and  _46
REMARK   21  A    between atoms: _45  and  _48
REMARK   22  A    between atoms: _48  and  _49
REMARK   23  A    between atoms: _51  and  _53
REMARK   24  A    between atoms: _53  and  _54
REMARK   25  A    between atoms: _53  and  _56
REMARK   26  A    between atoms: _56  and  _57
REMARK   27  A    between atoms: _57  and  _58
REMARK   28  A    between atoms: _58  and  _59
REMARK   29  A    between atoms: _68  and  _70
REMARK   30  A    between atoms: _70  and  _71
REMARK   31  A    between atoms: _70  and  _73
REMARK   32  A    between atoms: _73  and  _74
REMARK   33  A    between atoms: _74  and  _75
REMARK   34  A    between atoms: _75  and  _76
REMARK   35  A    between atoms: _76  and  _77
REMARK   36  A    between atoms: _81  and  _83
REMARK   37  A    between atoms: _83  and  _84
REMARK   38  A    between atoms: _83  and  _86
REMARK   39  A    between atoms: _86  and  _87
REMARK   40  A    between atoms: _90  and  _92
REMARK   41  A    between atoms: _92  and  _93
REMARK   42  A    between atoms: _92  and  _95
REMARK   43  A    between atoms: _95  and  _96
REMARK   44  A    between atoms: _96  and  _97
REMARK   45  A    between atoms: _97  and  _98
REMARK   46  A    between atoms: _98  and  _99
REMARK   47  A    between atoms: _104  and  _105
REMARK   48  A    between atoms: _110  and  _112
REMARK   49  A    between atoms: _112  and  _113
REMARK   50  A    between atoms: _115  and  _117
REMARK   51  A    between atoms: _117  and  _118
REMARK   52  A    between atoms: _117  and  _120
REMARK   53  A    between atoms: _120  and  _121
REMARK   54  A    between atoms: _127  and  _129
REMARK   55  A    between atoms: _129  and  _130
REMARK   56  A    between atoms: _129  and  _132
REMARK   57  A    between atoms: _132  and  _133
REMARK   58  A    between atoms: _136  and  _138
REMARK   59  A    between atoms: _138  and  _139
REMARK   60  A    between atoms: _142  and  _144
REMARK   61  A    between atoms: _144  and  _145
REMARK   62  A    between atoms: _147  and  _149
REMARK   63  A    between atoms: _149  and  _150
REMARK   64  A    between atoms: _149  and  _152
REMARK   65  A    between atoms: _152  and  _153
REMARK   66  A    between atoms: _153  and  _154
REMARK   67  A    between atoms: _156  and  _158
REMARK   68  A    between atoms: _158  and  _159
REMARK   69  A    between atoms: _158  and  _161
REMARK   70  A    between atoms: _161  and  _162
REMARK   71  A    between atoms: _162  and  _163
REMARK   72  A    between atoms: _163  and  _164
REMARK   73  A    between atoms: _173  and  _175
REMARK   74  A    between atoms: _175  and  _176
REMARK   75  A    between atoms: _175  and  _178
REMARK   76  A    between atoms: _178  and  _179
REMARK   77  A    between atoms: _179  and  _180
REMARK   78  A    between atoms: _183  and  _185
REMARK   79  A    between atoms: _185  and  _186
REMARK   80  A    between atoms: _185  and  _188
REMARK   81  A    between atoms: _188  and  _189
REMARK   82  A    between atoms: _192  and  _194
REMARK   83  A    between atoms: _194  and  _195
REMARK   84  A    between atoms: _194  and  _197
REMARK   85  A    between atoms: _197  and  _198
REMARK   86  A    between atoms: _198  and  _199
REMARK   87  A    between atoms: _201  and  _203
REMARK   88  A    between atoms: _203  and  _204
REMARK   89  A    between atoms: _206  and  _208
REMARK   90  A    between atoms: _208  and  _209
REMARK   91  A    between atoms: _211  and  _213
REMARK   92  A    between atoms: _213  and  _214
REMARK   93  A    between atoms: _217  and  _219
REMARK   94  A    between atoms: _219  and  _220
REMARK   95  A    between atoms: _219  and  _222
REMARK   96  A    between atoms: _222  and  _223
REMARK   97  A    between atoms: _225  and  _227
REMARK   98  A    between atoms: _227  and  _228
REMARK   99  A    between atoms: _227  and  _230
REMARK  100  A    between atoms: _233  and  _235
REMARK  101  A    between atoms: _235  and  _236
REMARK  102  A    between atoms: _235  and  _238
REMARK  103  A    between atoms: _238  and  _239
REMARK  104  A    between atoms: _239  and  _240
REMARK  105  A    between atoms: _245  and  _247
REMARK  106  A    between atoms: _247  and  _248
REMARK  107  A    between atoms: _250  and  _252
REMARK  108  A    between atoms: _252  and  _253
REMARK  109  A    between atoms: _252  and  _255
REMARK  110  A    between atoms: _255  and  _256
REMARK  111  A    between atoms: _256  and  _257
REMARK  112  A    between atoms: _262  and  _264
REMARK  113  A    between atoms: _264  and  _265
REMARK  114  A    between atoms: _264  and  _267
REMARK  115  A    between atoms: _267  and  _268
REMARK  116  A    between atoms: _271  and  _273
REMARK  117  A    between atoms: _273  and  _274
REMARK  118  A    between atoms: _273  and  _276
REMARK  119  A    between atoms: _276  and  _277
REMARK  120  A    between atoms: _277  and  _278
REMARK  121  A    between atoms: _281  and  _283
REMARK  122  A    between atoms: _283  and  _284
REMARK  123  A    between atoms: _283  and  _286
REMARK  124  A    between atoms: _286  and  _287
REMARK  125  A    between atoms: _289  and  _291
REMARK  126  A    between atoms: _291  and  _292
REMARK  127  A    between atoms: _291  and  _294
REMARK  128  A    between atoms: _294  and  _295
REMARK  129  A    between atoms: _298  and  _300
REMARK  130  A    between atoms: _300  and  _301
REMARK  131  A    between atoms: _303  and  _305
REMARK  132  A    between atoms: _305  and  _306
REMARK  133  A    between atoms: _308  and  _310
REMARK  134  A    between atoms: _310  and  _311
REMARK  135  A    between atoms: _310  and  _313
REMARK  136  A    between atoms: _313  and  _314
REMARK  137  A    between atoms: _317  and  _319
REMARK  138  A    between atoms: _319  and  _320
REMARK  139  A    between atoms: _319  and  _322
REMARK  140  A    between atoms: _322  and  _323
REMARK  141  A    between atoms: _325  and  _327
REMARK  142  A    between atoms: _327  and  _328
REMARK  143  A    between atoms: _327  and  _330
REMARK  144  A    between atoms: _330  and  _331
REMARK  145  A    between atoms: _336  and  _338
REMARK  146  A    between atoms: _338  and  _339
REMARK  147  A    between atoms: _338  and  _341
REMARK  148  A    between atoms: _341  and  _342
REMARK  149  A    between atoms: _345  and  _347
REMARK  150  A    between atoms: _347  and  _348
REMARK  151  A    between atoms: _351  and  _353
REMARK  152  A    between atoms: _353  and  _354
REMARK  153  A    between atoms: _353  and  _356
REMARK  154  A    between atoms: _356  and  _357
REMARK  155  A    between atoms: _359  and  _361
REMARK  156  A    between atoms: _361  and  _362
REMARK  157  A    between atoms: _361  and  _364
REMARK  158  A    between atoms: _364  and  _365
REMARK  159  A    between atoms: _367  and  _369
REMARK  160  A    between atoms: _369  and  _370
REMARK  161  A    between atoms: _369  and  _372
REMARK  162  A    between atoms: _372  and  _373
REMARK  163  A    between atoms: _373  and  _374
REMARK  164  A    between atoms: _379  and  _381
REMARK  165  A    between atoms: _381  and  _382
REMARK  166  A    between atoms: _381  and  _384
REMARK  167  A    between atoms: _384  and  _385
REMARK  168  A    between atoms: _388  and  _390
REMARK  169  A    between atoms: _390  and  _391
REMARK  170  A    between atoms: _390  and  _393
REMARK  171  A    between atoms: _393  and  _394
REMARK  172  A    between atoms: _400  and  _402
REMARK  173  A    between atoms: _402  and  _403
REMARK  174  A    between atoms: _402  and  _405
REMARK  175  A    between atoms: _405  and  _406
REMARK  176  A    between atoms: _409  and  _411
REMARK  177  A    between atoms: _411  and  _412
REMARK  178  A    between atoms: _411  and  _414
REMARK  179  A    between atoms: _414  and  _415
REMARK  180  A    between atoms: _418  and  _420
REMARK  181  A    between atoms: _420  and  _421
REMARK  182  A    between atoms: _420  and  _423
REMARK  183  A    between atoms: _423  and  _424
REMARK  184  A    between atoms: _424  and  _425
REMARK  185  A    between atoms: _428  and  _430
REMARK  186  A    between atoms: _430  and  _431
REMARK  187  A    between atoms: _430  and  _433
REMARK  188  A    between atoms: _433  and  _434
REMARK  189  A    between atoms: _439  and  _440
REMARK  190  A    between atoms: _442  and  _444
REMARK  191  A    between atoms: _444  and  _445
REMARK  192  A    between atoms: _444  and  _447
REMARK  193  A    between atoms: _447  and  _448
REMARK  194  A    between atoms: _451  and  _453
REMARK  195  A    between atoms: _453  and  _454
REMARK  196  A    between atoms: _453  and  _456
REMARK  197  A    between atoms: _456  and  _457
REMARK  198  A    between atoms: _457  and  _458
REMARK  199  A    between atoms: _463  and  _465
REMARK  200  A    between atoms: _465  and  _466
REMARK  201  A    between atoms: _465  and  _468
REMARK  202  A    between atoms: _468  and  _469
REMARK  203  A    between atoms: _474  and  _475
REMARK  204  A    between atoms: _477  and  _479
REMARK  205  A    between atoms: _479  and  _480
REMARK  206  A    between atoms: _479  and  _482
REMARK  207  A    between atoms: _482  and  _483
REMARK  208  A    between atoms: _486  and  _488
REMARK  209  A    between atoms: _488  and  _489
REMARK  210  A    between atoms: _488  and  _491
REMARK  211  A    between atoms: _491  and  _492
REMARK  212  A    between atoms: _497  and  _498
REMARK  213  A    between atoms: _500  and  _502
REMARK  214  A    between atoms: _502  and  _503
REMARK  215  A    between atoms: _502  and  _505
REMARK  216  A    between atoms: _505  and  _506
REMARK  217  A    between atoms: _511  and  _512
REMARK  218  A    between atoms: _515  and  _516
REMARK  219  A    between atoms: _521  and  _523
REMARK  220  A    between atoms: _523  and  _524
REMARK  221  A    between atoms: _523  and  _526
REMARK  222  A    between atoms: _526  and  _527
REMARK  223  A    between atoms: _530  and  _532
REMARK  224  A    between atoms: _532  and  _533
REMARK  225  A    between atoms: _532  and  _535
REMARK  226  A    between atoms: _535  and  _536
REMARK                            x       y       z     vdW  Elec       q    Type
REMARK                         _______ _______ _______ _____ _____    ______ ____
ROOT
ATOM      1  O   HOH     1      30.162  32.064  19.721  0.00  0.00    +0.000 OA
ENDROOT
TORSDOF 0
REMARK  Name = ../refined-set-2016/3aaq/3aaq_pocket.pdb
REMARK  226 active torsions:
REMARK  status: ('A' for Active; 'I' for Inactive)
REMARK    1  A    between atoms: _1  and  _3
REMARK    2  A    between atoms: _3  and  _4
REMARK    3  A    between atoms: _3  and  _6
REMARK    4  A    between atoms: _6  and  _7
REMARK    5  A    between atoms: _10  and  _12
REMARK    6  A    between atoms: _12  and  _13
REMARK    7  A    between atoms: _16  and  _18
REMARK    8  A    between atoms: _18  and  _19
REMARK    9  A    between atoms: _21  and  _23
REMARK   10  A    between atoms: _23  and  _24
REMARK   11  A    between atoms: _23  and  _26
REMARK   12  A    between atoms: _26  and  _27
REMARK   13  A    between atoms: _29  and  _31
REMARK   14  A    between atoms: _31  and  _32
REMARK   15  A    between atoms: _31  and  _34
REMARK   16  A    between atoms: _34  and  _35
REMARK   17  A    between atoms: _38  and  _40
REMARK   18  A    between atoms: _40  and  _41
REMARK   19  A    between atoms: _43  and  _45
REMARK   20  A    between atoms: _45  and  _46
REMARK   21  A    between atoms: _45  and  _48
REMARK   22  A    between atoms: _48  and  _49
REMARK   23  A    between atoms: _51  and  _53
REMARK   24  A    between atoms: _53  and  _54
REMARK   25  A    between atoms: _53  and  _56
REMARK   26  A    between atoms: _56  and  _57
REMARK   27  A    between atoms: _57  and  _58
REMARK   28  A    between atoms: _58  and  _59
REMARK   29  A    between atoms: _68  and  _70
REMARK   30  A    between atoms: _70  and  _71
REMARK   31  A    between atoms: _70  and  _73
REMARK   32  A    between atoms: _73  and  _74
REMARK   33  A    between atoms: _74  and  _75
REMARK   34  A    between atoms: _75  and  _76
REMARK   35  A    between atoms: _76  and  _77
REMARK   36  A    between atoms: _81  and  _83
REMARK   37  A    between atoms: _83  and  _84
REMARK   38  A    between atoms: _83  and  _86
REMARK   39  A    between atoms: _86  and  _87
REMARK   40  A    between atoms: _90  and  _92
REMARK   41  A    between atoms: _92  and  _93
REMARK   42  A    between atoms: _92  and  _95
REMARK   43  A    between atoms: _95  and  _96
REMARK   44  A    between atoms: _96  and  _97
REMARK   45  A    between atoms: _97  and  _98
REMARK   46  A    between atoms: _98  and  _99
REMARK   47  A    between atoms: _104  and  _105
REMARK   48  A    between atoms: _110  and  _112
REMARK   49  A    between atoms: _112  and  _113
REMARK   50  A    between atoms: _115  and  _117
REMARK   51  A    between atoms: _117  and  _118
REMARK   52  A    between atoms: _117  and  _120
REMARK   53  A    between atoms: _120  and  _121
REMARK   54  A    between atoms: _127  and  _129
REMARK   55  A    between atoms: _129  and  _130
REMARK   56  A    between atoms: _129  and  _132
REMARK   57  A    between atoms: _132  and  _133
REMARK   58  A    between atoms: _136  and  _138
REMARK   59  A    between atoms: _138  and  _139
REMARK   60  A    between atoms: _142  and  _144
REMARK   61  A    between atoms: _144  and  _145
REMARK   62  A    between atoms: _147  and  _149
REMARK   63  A    between atoms: _149  and  _150
REMARK   64  A    between atoms: _149  and  _152
REMARK   65  A    between atoms: _152  and  _153
REMARK   66  A    between atoms: _153  and  _154
REMARK   67  A    between atoms: _156  and  _158
REMARK   68  A    between atoms: _158  and  _159
REMARK   69  A    between atoms: _158  and  _161
REMARK   70  A    between atoms: _161  and  _162
REMARK   71  A    between atoms: _162  and  _163
REMARK   72  A    between atoms: _163  and  _164
REMARK   73  A    between atoms: _173  and  _175
REMARK   74  A    between atoms: _175  and  _176
REMARK   75  A    between atoms: _175  and  _178
REMARK   76  A    between atoms: _178  and  _179
REMARK   77  A    between atoms: _179  and  _180
REMARK   78  A    between atoms: _183  and  _185
REMARK   79  A    between atoms: _185  and  _186
REMARK   80  A    between atoms: _185  and  _188
REMARK   81  A    between atoms: _188  and  _189
REMARK   82  A    between atoms: _192  and  _194
REMARK   83  A    between atoms: _194  and  _195
REMARK   84  A    between atoms: _194  and  _197
REMARK   85  A    between atoms: _197  and  _198
REMARK   86  A    between atoms: _198  and  _199
REMARK   87  A    between atoms: _201  and  _203
REMARK   88  A    between atoms: _203  and  _204
REMARK   89  A    between atoms: _206  and  _208
REMARK   90  A    between atoms: _208  and  _209
REMARK   91  A    between atoms: _211  and  _213
REMARK   92  A    between atoms: _213  and  _214
REMARK   93  A    between atoms: _217  and  _219
REMARK   94  A    between atoms: _219  and  _220
REMARK   95  A    between atoms: _219  and  _222
REMARK   96  A    between atoms: _222  and  _223
REMARK   97  A    between atoms: _225  and  _227
REMARK   98  A    between atoms: _227  and  _228
REMARK   99  A    between atoms: _227  and  _230
REMARK  100  A    between atoms: _233  and  _235
REMARK  101  A    between atoms: _235  and  _236
REMARK  102  A    between atoms: _235  and  _238
REMARK  103  A    between atoms: _238  and  _239
REMARK  104  A    between atoms: _239  and  _240
REMARK  105  A    between atoms: _245  and  _247
REMARK  106  A    between atoms: _247  and  _248
REMARK  107  A    between atoms: _250  and  _252
REMARK  108  A    between atoms: _252  and  _253
REMARK  109  A    between atoms: _252  and  _255
REMARK  110  A    between atoms: _255  and  _256
REMARK  111  A    between atoms: _256  and  _257
REMARK  112  A    between atoms: _262  and  _264
REMARK  113  A    between atoms: _264  and  _265
REMARK  114  A    between atoms: _264  and  _267
REMARK  115  A    between atoms: _267  and  _268
REMARK  116  A    between atoms: _271  and  _273
REMARK  117  A    between atoms: _273  and  _274
REMARK  118  A    between atoms: _273  and  _276
REMARK  119  A    between atoms: _276  and  _277
REMARK  120  A    between atoms: _277  and  _278
REMARK  121  A    between atoms: _281  and  _283
REMARK  122  A    between atoms: _283  and  _284
REMARK  123  A    between atoms: _283  and  _286
REMARK  124  A    between atoms: _286  and  _287
REMARK  125  A    between atoms: _289  and  _291
REMARK  126  A    between atoms: _291  and  _292
REMARK  127  A    between atoms: _291  and  _294
REMARK  128  A    between atoms: _294  and  _295
REMARK  129  A    between atoms: _298  and  _300
REMARK  130  A    between atoms: _300  and  _301
REMARK  131  A    between atoms: _303  and  _305
REMARK  132  A    between atoms: _305  and  _306
REMARK  133  A    between atoms: _308  and  _310
REMARK  134  A    between atoms: _310  and  _311
REMARK  135  A    between atoms: _310  and  _313
REMARK  136  A    between atoms: _313  and  _314
REMARK  137  A    between atoms: _317  and  _319
REMARK  138  A    between atoms: _319  and  _320
REMARK  139  A    between atoms: _319  and  _322
REMARK  140  A    between atoms: _322  and  _323
REMARK  141  A    between atoms: _325  and  _327
REMARK  142  A    between atoms: _327  and  _328
REMARK  143  A    between atoms: _327  and  _330
REMARK  144  A    between atoms: _330  and  _331
REMARK  145  A    between atoms: _336  and  _338
REMARK  146  A    between atoms: _338  and  _339
REMARK  147  A    between atoms: _338  and  _341
REMARK  148  A    between atoms: _341  and  _342
REMARK  149  A    between atoms: _345  and  _347
REMARK  150  A    between atoms: _347  and  _348
REMARK  151  A    between atoms: _351  and  _353
REMARK  152  A    between atoms: _353  and  _354
REMARK  153  A    between atoms: _353  and  _356
REMARK  154  A    between atoms: _356  and  _357
REMARK  155  A    between atoms: _359  and  _361
REMARK  156  A    between atoms: _361  and  _362
REMARK  157  A    between atoms: _361  and  _364
REMARK  158  A    between atoms: _364  and  _365
REMARK  159  A    between atoms: _367  and  _369
REMARK  160  A    between atoms: _369  and  _370
REMARK  161  A    between atoms: _369  and  _372
REMARK  162  A    between atoms: _372  and  _373
REMARK  163  A    between atoms: _373  and  _374
REMARK  164  A    between atoms: _379  and  _381
REMARK  165  A    between atoms: _381  and  _382
REMARK  166  A    between atoms: _381  and  _384
REMARK  167  A    between atoms: _384  and  _385
REMARK  168  A    between atoms: _388  and  _390
REMARK  169  A    between atoms: _390  and  _391
REMARK  170  A    between atoms: _390  and  _393
REMARK  171  A    between atoms: _393  and  _394
REMARK  172  A    between atoms: _400  and  _402
REMARK  173  A    between atoms: _402  and  _403
REMARK  174  A    between atoms: _402  and  _405
REMARK  175  A    between atoms: _405  and  _406
REMARK  176  A    between atoms: _409  and  _411
REMARK  177  A    between atoms: _411  and  _412
REMARK  178  A    between atoms: _411  and  _414
REMARK  179  A    between atoms: _414  and  _415
REMARK  180  A    between atoms: _418  and  _420
REMARK  181  A    between atoms: _420  and  _421
REMARK  182  A    between atoms: _420  and  _423
REMARK  183  A    between atoms: _423  and  _424
REMARK  184  A    between atoms: _424  and  _425
REMARK  185  A    between atoms: _428  and  _430
REMARK  186  A    between atoms: _430  and  _431
REMARK  187  A    between atoms: _430  and  _433
REMARK  188  A    between atoms: _433  and  _434
REMARK  189  A    between atoms: _439  and  _440
REMARK  190  A    between atoms: _442  and  _444
REMARK  191  A    between atoms: _444  and  _445
REMARK  192  A    between atoms: _444  and  _447
REMARK  193  A    between atoms: _447  and  _448
REMARK  194  A    between atoms: _451  and  _453
REMARK  195  A    between atoms: _453  and  _454
REMARK  196  A    between atoms: _453  and  _456
REMARK  197  A    between atoms: _456  and  _457
REMARK  198  A    between atoms: _457  and  _458
REMARK  199  A    between atoms: _463  and  _465
REMARK  200  A    between atoms: _465  and  _466
REMARK  201  A    between atoms: _465  and  _468
REMARK  202  A    between atoms: _468  and  _469
REMARK  203  A    between atoms: _474  and  _475
REMARK  204  A    between atoms: _477  and  _479
REMARK  205  A    between atoms: _479  and  _480
REMARK  206  A    between atoms: _479  and  _482
REMARK  207  A    between atoms: _482  and  _483
REMARK  208  A    between atoms: _486  and  _488
REMARK  209  A    between atoms: _488  and  _489
REMARK  210  A    between atoms: _488  and  _491
REMARK  211  A    between atoms: _491  and  _492
REMARK  212  A    between atoms: _497  and  _498
REMARK  213  A    between atoms: _500  and  _502
REMARK  214  A    between atoms: _502  and  _503
REMARK  215  A    between atoms: _502  and  _505
REMARK  216  A    between atoms: _505  and  _506
REMARK  217  A    between atoms: _511  and  _512
REMARK  218  A    between atoms: _515  and  _516
REMARK  219  A    between atoms: _521  and  _523
REMARK  220  A    between atoms: _523  and  _524
REMARK  221  A    between atoms: _523  and  _526
REMARK  222  A    between atoms: _526  and  _527
REMARK  223  A    between atoms: _530  and  _532
REMARK  224  A    between atoms: _532  and  _533
REMARK  225  A    between atoms: _532  and  _535
REMARK  226  A    between atoms: _535  and  _536
REMARK                            x       y       z     vdW  Elec       q    Type
REMARK                         _______ _______ _______ _____ _____    ______ ____
ROOT
ATOM      1  O   HOH     1      23.297  35.493  26.466  0.00  0.00    +0.000 OA
ENDROOT
TORSDOF 0
REMARK  Name = ../refined-set-2016/3aaq/3aaq_pocket.pdb
REMARK  226 active torsions:
REMARK  status: ('A' for Active; 'I' for Inactive)
REMARK    1  A    between atoms: _1  and  _3
REMARK    2  A    between atoms: _3  and  _4
REMARK    3  A    between atoms: _3  and  _6
REMARK    4  A    between atoms: _6  and  _7
REMARK    5  A    between atoms: _10  and  _12
REMARK    6  A    between atoms: _12  and  _13
REMARK    7  A    between atoms: _16  and  _18
REMARK    8  A    between atoms: _18  and  _19
REMARK    9  A    between atoms: _21  and  _23
REMARK   10  A    between atoms: _23  and  _24
REMARK   11  A    between atoms: _23  and  _26
REMARK   12  A    between atoms: _26  and  _27
REMARK   13  A    between atoms: _29  and  _31
REMARK   14  A    between atoms: _31  and  _32
REMARK   15  A    between atoms: _31  and  _34
REMARK   16  A    between atoms: _34  and  _35
REMARK   17  A    between atoms: _38  and  _40
REMARK   18  A    between atoms: _40  and  _41
REMARK   19  A    between atoms: _43  and  _45
REMARK   20  A    between atoms: _45  and  _46
REMARK   21  A    between atoms: _45  and  _48
REMARK   22  A    between atoms: _48  and  _49
REMARK   23  A    between atoms: _51  and  _53
REMARK   24  A    between atoms: _53  and  _54
REMARK   25  A    between atoms: _53  and  _56
REMARK   26  A    between atoms: _56  and  _57
REMARK   27  A    between atoms: _57  and  _58
REMARK   28  A    between atoms: _58  and  _59
REMARK   29  A    between atoms: _68  and  _70
REMARK   30  A    between atoms: _70  and  _71
REMARK   31  A    between atoms: _70  and  _73
REMARK   32  A    between atoms: _73  and  _74
REMARK   33  A    between atoms: _74  and  _75
REMARK   34  A    between atoms: _75  and  _76
REMARK   35  A    between atoms: _76  and  _77
REMARK   36  A    between atoms: _81  and  _83
REMARK   37  A    between atoms: _83  and  _84
REMARK   38  A    between atoms: _83  and  _86
REMARK   39  A    between atoms: _86  and  _87
REMARK   40  A    between atoms: _90  and  _92
REMARK   41  A    between atoms: _92  and  _93
REMARK   42  A    between atoms: _92  and  _95
REMARK   43  A    between atoms: _95  and  _96
REMARK   44  A    between atoms: _96  and  _97
REMARK   45  A    between atoms: _97  and  _98
REMARK   46  A    between atoms: _98  and  _99
REMARK   47  A    between atoms: _104  and  _105
REMARK   48  A    between atoms: _110  and  _112
REMARK   49  A    between atoms: _112  and  _113
REMARK   50  A    between atoms: _115  and  _117
REMARK   51  A    between atoms: _117  and  _118
REMARK   52  A    between atoms: _117  and  _120
REMARK   53  A    between atoms: _120  and  _121
REMARK   54  A    between atoms: _127  and  _129
REMARK   55  A    between atoms: _129  and  _130
REMARK   56  A    between atoms: _129  and  _132
REMARK   57  A    between atoms: _132  and  _133
REMARK   58  A    between atoms: _136  and  _138
REMARK   59  A    between atoms: _138  and  _139
REMARK   60  A    between atoms: _142  and  _144
REMARK   61  A    between atoms: _144  and  _145
REMARK   62  A    between atoms: _147  and  _149
REMARK   63  A    between atoms: _149  and  _150
REMARK   64  A    between atoms: _149  and  _152
REMARK   65  A    between atoms: _152  and  _153
REMARK   66  A    between atoms: _153  and  _154
REMARK   67  A    between atoms: _156  and  _158
REMARK   68  A    between atoms: _158  and  _159
REMARK   69  A    between atoms: _158  and  _161
REMARK   70  A    between atoms: _161  and  _162
REMARK   71  A    between atoms: _162  and  _163
REMARK   72  A    between atoms: _163  and  _164
REMARK   73  A    between atoms: _173  and  _175
REMARK   74  A    between atoms: _175  and  _176
REMARK   75  A    between atoms: _175  and  _178
REMARK   76  A    between atoms: _178  and  _179
REMARK   77  A    between atoms: _179  and  _180
REMARK   78  A    between atoms: _183  and  _185
REMARK   79  A    between atoms: _185  and  _186
REMARK   80  A    between atoms: _185  and  _188
REMARK   81  A    between atoms: _188  and  _189
REMARK   82  A    between atoms: _192  and  _194
REMARK   83  A    between atoms: _194  and  _195
REMARK   84  A    between atoms: _194  and  _197
REMARK   85  A    between atoms: _197  and  _198
REMARK   86  A    between atoms: _198  and  _199
REMARK   87  A    between atoms: _201  and  _203
REMARK   88  A    between atoms: _203  and  _204
REMARK   89  A    between atoms: _206  and  _208
REMARK   90  A    between atoms: _208  and  _209
REMARK   91  A    between atoms: _211  and  _213
REMARK   92  A    between atoms: _213  and  _214
REMARK   93  A    between atoms: _217  and  _219
REMARK   94  A    between atoms: _219  and  _220
REMARK   95  A    between atoms: _219  and  _222
REMARK   96  A    between atoms: _222  and  _223
REMARK   97  A    between atoms: _225  and  _227
REMARK   98  A    between atoms: _227  and  _228
REMARK   99  A    between atoms: _227  and  _230
REMARK  100  A    between atoms: _233  and  _235
REMARK  101  A    between atoms: _235  and  _236
REMARK  102  A    between atoms: _235  and  _238
REMARK  103  A    between atoms: _238  and  _239
REMARK  104  A    between atoms: _239  and  _240
REMARK  105  A    between atoms: _245  and  _247
REMARK  106  A    between atoms: _247  and  _248
REMARK  107  A    between atoms: _250  and  _252
REMARK  108  A    between atoms: _252  and  _253
REMARK  109  A    between atoms: _252  and  _255
REMARK  110  A    between atoms: _255  and  _256
REMARK  111  A    between atoms: _256  and  _257
REMARK  112  A    between atoms: _262  and  _264
REMARK  113  A    between atoms: _264  and  _265
REMARK  114  A    between atoms: _264  and  _267
REMARK  115  A    between atoms: _267  and  _268
REMARK  116  A    between atoms: _271  and  _273
REMARK  117  A    between atoms: _273  and  _274
REMARK  118  A    between atoms: _273  and  _276
REMARK  119  A    between atoms: _276  and  _277
REMARK  120  A    between atoms: _277  and  _278
REMARK  121  A    between atoms: _281  and  _283
REMARK  122  A    between atoms: _283  and  _284
REMARK  123  A    between atoms: _283  and  _286
REMARK  124  A    between atoms: _286  and  _287
REMARK  125  A    between atoms: _289  and  _291
REMARK  126  A    between atoms: _291  and  _292
REMARK  127  A    between atoms: _291  and  _294
REMARK  128  A    between atoms: _294  and  _295
REMARK  129  A    between atoms: _298  and  _300
REMARK  130  A    between atoms: _300  and  _301
REMARK  131  A    between atoms: _303  and  _305
REMARK  132  A    between atoms: _305  and  _306
REMARK  133  A    between atoms: _308  and  _310
REMARK  134  A    between atoms: _310  and  _311
REMARK  135  A    between atoms: _310  and  _313
REMARK  136  A    between atoms: _313  and  _314
REMARK  137  A    between atoms: _317  and  _319
REMARK  138  A    between atoms: _319  and  _320
REMARK  139  A    between atoms: _319  and  _322
REMARK  140  A    between atoms: _322  and  _323
REMARK  141  A    between atoms: _325  and  _327
REMARK  142  A    between atoms: _327  and  _328
REMARK  143  A    between atoms: _327  and  _330
REMARK  144  A    between atoms: _330  and  _331
REMARK  145  A    between atoms: _336  and  _338
REMARK  146  A    between atoms: _338  and  _339
REMARK  147  A    between atoms: _338  and  _341
REMARK  148  A    between atoms: _341  and  _342
REMARK  149  A    between atoms: _345  and  _347
REMARK  150  A    between atoms: _347  and  _348
REMARK  151  A    between atoms: _351  and  _353
REMARK  152  A    between atoms: _353  and  _354
REMARK  153  A    between atoms: _353  and  _356
REMARK  154  A    between atoms: _356  and  _357
REMARK  155  A    between atoms: _359  and  _361
REMARK  156  A    between atoms: _361  and  _362
REMARK  157  A    between atoms: _361  and  _364
REMARK  158  A    between atoms: _364  and  _365
REMARK  159  A    between atoms: _367  and  _369
REMARK  160  A    between atoms: _369  and  _370
REMARK  161  A    between atoms: _369  and  _372
REMARK  162  A    between atoms: _372  and  _373
REMARK  163  A    between atoms: _373  and  _374
REMARK  164  A    between atoms: _379  and  _381
REMARK  165  A    between atoms: _381  and  _382
REMARK  166  A    between atoms: _381  and  _384
REMARK  167  A    between atoms: _384  and  _385
REMARK  168  A    between atoms: _388  and  _390
REMARK  169  A    between atoms: _390  and  _391
REMARK  170  A    between atoms: _390  and  _393
REMARK  171  A    between atoms: _393  and  _394
REMARK  172  A    between atoms: _400  and  _402
REMARK  173  A    between atoms: _402  and  _403
REMARK  174  A    between atoms: _402  and  _405
REMARK  175  A    between atoms: _405  and  _406
REMARK  176  A    between atoms: _409  and  _411
REMARK  177  A    between atoms: _411  and  _412
REMARK  178  A    between atoms: _411  and  _414
REMARK  179  A    between atoms: _414  and  _415
REMARK  180  A    between atoms: _418  and  _420
REMARK  181  A    between atoms: _420  and  _421
REMARK  182  A    between atoms: _420  and  _423
REMARK  183  A    between atoms: _423  and  _424
REMARK  184  A    between atoms: _424  and  _425
REMARK  185  A    between atoms: _428  and  _430
REMARK  186  A    between atoms: _430  and  _431
REMARK  187  A    between atoms: _430  and  _433
REMARK  188  A    between atoms: _433  and  _434
REMARK  189  A    between atoms: _439  and  _440
REMARK  190  A    between atoms: _442  and  _444
REMARK  191  A    between atoms: _444  and  _445
REMARK  192  A    between atoms: _444  and  _447
REMARK  193  A    between atoms: _447  and  _448
REMARK  194  A    between atoms: _451  and  _453
REMARK  195  A    between atoms: _453  and  _454
REMARK  196  A    between atoms: _453  and  _456
REMARK  197  A    between atoms: _456  and  _457
REMARK  198  A    between atoms: _457  and  _458
REMARK  199  A    between atoms: _463  and  _465
REMARK  200  A    between atoms: _465  and  _466
REMARK  201  A    between atoms: _465  and  _468
REMARK  202  A    between atoms: _468  and  _469
REMARK  203  A    between atoms: _474  and  _475
REMARK  204  A    between atoms: _477  and  _479
REMARK  205  A    between atoms: _479  and  _480
REMARK  206  A    between atoms: _479  and  _482
REMARK  207  A    between atoms: _482  and  _483
REMARK  208  A    between atoms: _486  and  _488
REMARK  209  A    between atoms: _488  and  _489
REMARK  210  A    between atoms: _488  and  _491
REMARK  211  A    between atoms: _491  and  _492
REMARK  212  A    between atoms: _497  and  _498
REMARK  213  A    between atoms: _500  and  _502
REMARK  214  A    between atoms: _502  and  _503
REMARK  215  A    between atoms: _502  and  _505
REMARK  216  A    between atoms: _505  and  _506
REMARK  217  A    between atoms: _511  and  _512
REMARK  218  A    between atoms: _515  and  _516
REMARK  219  A    between atoms: _521  and  _523
REMARK  220  A    between atoms: _523  and  _524
REMARK  221  A    between atoms: _523  and  _526
REMARK  222  A    between atoms: _526  and  _527
REMARK  223  A    between atoms: _530  and  _532
REMARK  224  A    between atoms: _532  and  _533
REMARK  225  A    between atoms: _532  and  _535
REMARK  226  A    between atoms: _535  and  _536
REMARK                            x       y       z     vdW  Elec       q    Type
REMARK                         _______ _______ _______ _____ _____    ______ ____
ROOT
ATOM      1  O   HOH     1      36.158  39.441  28.421  0.00  0.00    +0.000 OA
ENDROOT
TORSDOF 0
REMARK  Name = ../refined-set-2016/3aaq/3aaq_pocket.pdb
REMARK  226 active torsions:
REMARK  status: ('A' for Active; 'I' for Inactive)
REMARK    1  A    between atoms: _1  and  _3
REMARK    2  A    between atoms: _3  and  _4
REMARK    3  A    between atoms: _3  and  _6
REMARK    4  A    between atoms: _6  and  _7
REMARK    5  A    between atoms: _10  and  _12
REMARK    6  A    between atoms: _12  and  _13
REMARK    7  A    between atoms: _16  and  _18
REMARK    8  A    between atoms: _18  and  _19
REMARK    9  A    between atoms: _21  and  _23
REMARK   10  A    between atoms: _23  and  _24
REMARK   11  A    between atoms: _23  and  _26
REMARK   12  A    between atoms: _26  and  _27
REMARK   13  A    between atoms: _29  and  _31
REMARK   14  A    between atoms: _31  and  _32
REMARK   15  A    between atoms: _31  and  _34
REMARK   16  A    between atoms: _34  and  _35
REMARK   17  A    between atoms: _38  and  _40
REMARK   18  A    between atoms: _40  and  _41
REMARK   19  A    between atoms: _43  and  _45
REMARK   20  A    between atoms: _45  and  _46
REMARK   21  A    between atoms: _45  and  _48
REMARK   22  A    between atoms: _48  and  _49
REMARK   23  A    between atoms: _51  and  _53
REMARK   24  A    between atoms: _53  and  _54
REMARK   25  A    between atoms: _53  and  _56
REMARK   26  A    between atoms: _56  and  _57
REMARK   27  A    between atoms: _57  and  _58
REMARK   28  A    between atoms: _58  and  _59
REMARK   29  A    between atoms: _68  and  _70
REMARK   30  A    between atoms: _70  and  _71
REMARK   31  A    between atoms: _70  and  _73
REMARK   32  A    between atoms: _73  and  _74
REMARK   33  A    between atoms: _74  and  _75
REMARK   34  A    between atoms: _75  and  _76
REMARK   35  A    between atoms: _76  and  _77
REMARK   36  A    between atoms: _81  and  _83
REMARK   37  A    between atoms: _83  and  _84
REMARK   38  A    between atoms: _83  and  _86
REMARK   39  A    between atoms: _86  and  _87
REMARK   40  A    between atoms: _90  and  _92
REMARK   41  A    between atoms: _92  and  _93
REMARK   42  A    between atoms: _92  and  _95
REMARK   43  A    between atoms: _95  and  _96
REMARK   44  A    between atoms: _96  and  _97
REMARK   45  A    between atoms: _97  and  _98
REMARK   46  A    between atoms: _98  and  _99
REMARK   47  A    between atoms: _104  and  _105
REMARK   48  A    between atoms: _110  and  _112
REMARK   49  A    between atoms: _112  and  _113
REMARK   50  A    between atoms: _115  and  _117
REMARK   51  A    between atoms: _117  and  _118
REMARK   52  A    between atoms: _117  and  _120
REMARK   53  A    between atoms: _120  and  _121
REMARK   54  A    between atoms: _127  and  _129
REMARK   55  A    between atoms: _129  and  _130
REMARK   56  A    between atoms: _129  and  _132
REMARK   57  A    between atoms: _132  and  _133
REMARK   58  A    between atoms: _136  and  _138
REMARK   59  A    between atoms: _138  and  _139
REMARK   60  A    between atoms: _142  and  _144
REMARK   61  A    between atoms: _144  and  _145
REMARK   62  A    between atoms: _147  and  _149
REMARK   63  A    between atoms: _149  and  _150
REMARK   64  A    between atoms: _149  and  _152
REMARK   65  A    between atoms: _152  and  _153
REMARK   66  A    between atoms: _153  and  _154
REMARK   67  A    between atoms: _156  and  _158
REMARK   68  A    between atoms: _158  and  _159
REMARK   69  A    between atoms: _158  and  _161
REMARK   70  A    between atoms: _161  and  _162
REMARK   71  A    between atoms: _162  and  _163
REMARK   72  A    between atoms: _163  and  _164
REMARK   73  A    between atoms: _173  and  _175
REMARK   74  A    between atoms: _175  and  _176
REMARK   75  A    between atoms: _175  and  _178
REMARK   76  A    between atoms: _178  and  _179
REMARK   77  A    between atoms: _179  and  _180
REMARK   78  A    between atoms: _183  and  _185
REMARK   79  A    between atoms: _185  and  _186
REMARK   80  A    between atoms: _185  and  _188
REMARK   81  A    between atoms: _188  and  _189
REMARK   82  A    between atoms: _192  and  _194
REMARK   83  A    between atoms: _194  and  _195
REMARK   84  A    between atoms: _194  and  _197
REMARK   85  A    between atoms: _197  and  _198
REMARK   86  A    between atoms: _198  and  _199
REMARK   87  A    between atoms: _201  and  _203
REMARK   88  A    between atoms: _203  and  _204
REMARK   89  A    between atoms: _206  and  _208
REMARK   90  A    between atoms: _208  and  _209
REMARK   91  A    between atoms: _211  and  _213
REMARK   92  A    between atoms: _213  and  _214
REMARK   93  A    between atoms: _217  and  _219
REMARK   94  A    between atoms: _219  and  _220
REMARK   95  A    between atoms: _219  and  _222
REMARK   96  A    between atoms: _222  and  _223
REMARK   97  A    between atoms: _225  and  _227
REMARK   98  A    between atoms: _227  and  _228
REMARK   99  A    between atoms: _227  and  _230
REMARK  100  A    between atoms: _233  and  _235
REMARK  101  A    between atoms: _235  and  _236
REMARK  102  A    between atoms: _235  and  _238
REMARK  103  A    between atoms: _238  and  _239
REMARK  104  A    between atoms: _239  and  _240
REMARK  105  A    between atoms: _245  and  _247
REMARK  106  A    between atoms: _247  and  _248
REMARK  107  A    between atoms: _250  and  _252
REMARK  108  A    between atoms: _252  and  _253
REMARK  109  A    between atoms: _252  and  _255
REMARK  110  A    between atoms: _255  and  _256
REMARK  111  A    between atoms: _256  and  _257
REMARK  112  A    between atoms: _262  and  _264
REMARK  113  A    between atoms: _264  and  _265
REMARK  114  A    between atoms: _264  and  _267
REMARK  115  A    between atoms: _267  and  _268
REMARK  116  A    between atoms: _271  and  _273
REMARK  117  A    between atoms: _273  and  _274
REMARK  118  A    between atoms: _273  and  _276
REMARK  119  A    between atoms: _276  and  _277
REMARK  120  A    between atoms: _277  and  _278
REMARK  121  A    between atoms: _281  and  _283
REMARK  122  A    between atoms: _283  and  _284
REMARK  123  A    between atoms: _283  and  _286
REMARK  124  A    between atoms: _286  and  _287
REMARK  125  A    between atoms: _289  and  _291
REMARK  126  A    between atoms: _291  and  _292
REMARK  127  A    between atoms: _291  and  _294
REMARK  128  A    between atoms: _294  and  _295
REMARK  129  A    between atoms: _298  and  _300
REMARK  130  A    between atoms: _300  and  _301
REMARK  131  A    between atoms: _303  and  _305
REMARK  132  A    between atoms: _305  and  _306
REMARK  133  A    between atoms: _308  and  _310
REMARK  134  A    between atoms: _310  and  _311
REMARK  135  A    between atoms: _310  and  _313
REMARK  136  A    between atoms: _313  and  _314
REMARK  137  A    between atoms: _317  and  _319
REMARK  138  A    between atoms: _319  and  _320
REMARK  139  A    between atoms: _319  and  _322
REMARK  140  A    between atoms: _322  and  _323
REMARK  141  A    between atoms: _325  and  _327
REMARK  142  A    between atoms: _327  and  _328
REMARK  143  A    between atoms: _327  and  _330
REMARK  144  A    between atoms: _330  and  _331
REMARK  145  A    between atoms: _336  and  _338
REMARK  146  A    between atoms: _338  and  _339
REMARK  147  A    between atoms: _338  and  _341
REMARK  148  A    between atoms: _341  and  _342
REMARK  149  A    between atoms: _345  and  _347
REMARK  150  A    between atoms: _347  and  _348
REMARK  151  A    between atoms: _351  and  _353
REMARK  152  A    between atoms: _353  and  _354
REMARK  153  A    between atoms: _353  and  _356
REMARK  154  A    between atoms: _356  and  _357
REMARK  155  A    between atoms: _359  and  _361
REMARK  156  A    between atoms: _361  and  _362
REMARK  157  A    between atoms: _361  and  _364
REMARK  158  A    between atoms: _364  and  _365
REMARK  159  A    between atoms: _367  and  _369
REMARK  160  A    between atoms: _369  and  _370
REMARK  161  A    between atoms: _369  and  _372
REMARK  162  A    between atoms: _372  and  _373
REMARK  163  A    between atoms: _373  and  _374
REMARK  164  A    between atoms: _379  and  _381
REMARK  165  A    between atoms: _381  and  _382
REMARK  166  A    between atoms: _381  and  _384
REMARK  167  A    between atoms: _384  and  _385
REMARK  168  A    between atoms: _388  and  _390
REMARK  169  A    between atoms: _390  and  _391
REMARK  170  A    between atoms: _390  and  _393
REMARK  171  A    between atoms: _393  and  _394
REMARK  172  A    between atoms: _400  and  _402
REMARK  173  A    between atoms: _402  and  _403
REMARK  174  A    between atoms: _402  and  _405
REMARK  175  A    between atoms: _405  and  _406
REMARK  176  A    between atoms: _409  and  _411
REMARK  177  A    between atoms: _411  and  _412
REMARK  178  A    between atoms: _411  and  _414
REMARK  179  A    between atoms: _414  and  _415
REMARK  180  A    between atoms: _418  and  _420
REMARK  181  A    between atoms: _420  and  _421
REMARK  182  A    between atoms: _420  and  _423
REMARK  183  A    between atoms: _423  and  _424
REMARK  184  A    between atoms: _424  and  _425
REMARK  185  A    between atoms: _428  and  _430
REMARK  186  A    between atoms: _430  and  _431
REMARK  187  A    between atoms: _430  and  _433
REMARK  188  A    between atoms: _433  and  _434
REMARK  189  A    between atoms: _439  and  _440
REMARK  190  A    between atoms: _442  and  _444
REMARK  191  A    between atoms: _444  and  _445
REMARK  192  A    between atoms: _444  and  _447
REMARK  193  A    between atoms: _447  and  _448
REMARK  194  A    between atoms: _451  and  _453
REMARK  195  A    between atoms: _453  and  _454
REMARK  196  A    between atoms: _453  and  _456
REMARK  197  A    between atoms: _456  and  _457
REMARK  198  A    between atoms: _457  and  _458
REMARK  199  A    between atoms: _463  and  _465
REMARK  200  A    between atoms: _465  and  _466
REMARK  201  A    between atoms: _465  and  _468
REMARK  202  A    between atoms: _468  and  _469
REMARK  203  A    between atoms: _474  and  _475
REMARK  204  A    between atoms: _477  and  _479
REMARK  205  A    between atoms: _479  and  _480
REMARK  206  A    between atoms: _479  and  _482
REMARK  207  A    between atoms: _482  and  _483
REMARK  208  A    between atoms: _486  and  _488
REMARK  209  A    between atoms: _488  and  _489
REMARK  210  A    between atoms: _488  and  _491
REMARK  211  A    between atoms: _491  and  _492
REMARK  212  A    between atoms: _497  and  _498
REMARK  213  A    between atoms: _500  and  _502
REMARK  214  A    between atoms: _502  and  _503
REMARK  215  A    between atoms: _502  and  _505
REMARK  216  A    between atoms: _505  and  _506
REMARK  217  A    between atoms: _511  and  _512
REMARK  218  A    between atoms: _515  and  _516
REMARK  219  A    between atoms: _521  and  _523
REMARK  220  A    between atoms: _523  and  _524
REMARK  221  A    between atoms: _523  and  _526
REMARK  222  A    between atoms: _526  and  _527
REMARK  223  A    between atoms: _530  and  _532
REMARK  224  A    between atoms: _532  and  _533
REMARK  225  A    between atoms: _532  and  _535
REMARK  226  A    between atoms: _535  and  _536
REMARK                            x       y       z     vdW  Elec       q    Type
REMARK                         _______ _______ _______ _____ _____    ______ ____
ROOT
ATOM      1  O   HOH     1      26.772  29.493  38.423  0.00  0.00    +0.000 OA
ENDROOT
TORSDOF 0
REMARK  Name = ../refined-set-2016/3aaq/3aaq_pocket.pdb
REMARK  226 active torsions:
REMARK  status: ('A' for Active; 'I' for Inactive)
REMARK    1  A    between atoms: _1  and  _3
REMARK    2  A    between atoms: _3  and  _4
REMARK    3  A    between atoms: _3  and  _6
REMARK    4  A    between atoms: _6  and  _7
REMARK    5  A    between atoms: _10  and  _12
REMARK    6  A    between atoms: _12  and  _13
REMARK    7  A    between atoms: _16  and  _18
REMARK    8  A    between atoms: _18  and  _19
REMARK    9  A    between atoms: _21  and  _23
REMARK   10  A    between atoms: _23  and  _24
REMARK   11  A    between atoms: _23  and  _26
REMARK   12  A    between atoms: _26  and  _27
REMARK   13  A    between atoms: _29  and  _31
REMARK   14  A    between atoms: _31  and  _32
REMARK   15  A    between atoms: _31  and  _34
REMARK   16  A    between atoms: _34  and  _35
REMARK   17  A    between atoms: _38  and  _40
REMARK   18  A    between atoms: _40  and  _41
REMARK   19  A    between atoms: _43  and  _45
REMARK   20  A    between atoms: _45  and  _46
REMARK   21  A    between atoms: _45  and  _48
REMARK   22  A    between atoms: _48  and  _49
REMARK   23  A    between atoms: _51  and  _53
REMARK   24  A    between atoms: _53  and  _54
REMARK   25  A    between atoms: _53  and  _56
REMARK   26  A    between atoms: _56  and  _57
REMARK   27  A    between atoms: _57  and  _58
REMARK   28  A    between atoms: _58  and  _59
REMARK   29  A    between atoms: _68  and  _70
REMARK   30  A    between atoms: _70  and  _71
REMARK   31  A    between atoms: _70  and  _73
REMARK   32  A    between atoms: _73  and  _74
REMARK   33  A    between atoms: _74  and  _75
REMARK   34  A    between atoms: _75  and  _76
REMARK   35  A    between atoms: _76  and  _77
REMARK   36  A    between atoms: _81  and  _83
REMARK   37  A    between atoms: _83  and  _84
REMARK   38  A    between atoms: _83  and  _86
REMARK   39  A    between atoms: _86  and  _87
REMARK   40  A    between atoms: _90  and  _92
REMARK   41  A    between atoms: _92  and  _93
REMARK   42  A    between atoms: _92  and  _95
REMARK   43  A    between atoms: _95  and  _96
REMARK   44  A    between atoms: _96  and  _97
REMARK   45  A    between atoms: _97  and  _98
REMARK   46  A    between atoms: _98  and  _99
REMARK   47  A    between atoms: _104  and  _105
REMARK   48  A    between atoms: _110  and  _112
REMARK   49  A    between atoms: _112  and  _113
REMARK   50  A    between atoms: _115  and  _117
REMARK   51  A    between atoms: _117  and  _118
REMARK   52  A    between atoms: _117  and  _120
REMARK   53  A    between atoms: _120  and  _121
REMARK   54  A    between atoms: _127  and  _129
REMARK   55  A    between atoms: _129  and  _130
REMARK   56  A    between atoms: _129  and  _132
REMARK   57  A    between atoms: _132  and  _133
REMARK   58  A    between atoms: _136  and  _138
REMARK   59  A    between atoms: _138  and  _139
REMARK   60  A    between atoms: _142  and  _144
REMARK   61  A    between atoms: _144  and  _145
REMARK   62  A    between atoms: _147  and  _149
REMARK   63  A    between atoms: _149  and  _150
REMARK   64  A    between atoms: _149  and  _152
REMARK   65  A    between atoms: _152  and  _153
REMARK   66  A    between atoms: _153  and  _154
REMARK   67  A    between atoms: _156  and  _158
REMARK   68  A    between atoms: _158  and  _159
REMARK   69  A    between atoms: _158  and  _161
REMARK   70  A    between atoms: _161  and  _162
REMARK   71  A    between atoms: _162  and  _163
REMARK   72  A    between atoms: _163  and  _164
REMARK   73  A    between atoms: _173  and  _175
REMARK   74  A    between atoms: _175  and  _176
REMARK   75  A    between atoms: _175  and  _178
REMARK   76  A    between atoms: _178  and  _179
REMARK   77  A    between atoms: _179  and  _180
REMARK   78  A    between atoms: _183  and  _185
REMARK   79  A    between atoms: _185  and  _186
REMARK   80  A    between atoms: _185  and  _188
REMARK   81  A    between atoms: _188  and  _189
REMARK   82  A    between atoms: _192  and  _194
REMARK   83  A    between atoms: _194  and  _195
REMARK   84  A    between atoms: _194  and  _197
REMARK   85  A    between atoms: _197  and  _198
REMARK   86  A    between atoms: _198  and  _199
REMARK   87  A    between atoms: _201  and  _203
REMARK   88  A    between atoms: _203  and  _204
REMARK   89  A    between atoms: _206  and  _208
REMARK   90  A    between atoms: _208  and  _209
REMARK   91  A    between atoms: _211  and  _213
REMARK   92  A    between atoms: _213  and  _214
REMARK   93  A    between atoms: _217  and  _219
REMARK   94  A    between atoms: _219  and  _220
REMARK   95  A    between atoms: _219  and  _222
REMARK   96  A    between atoms: _222  and  _223
REMARK   97  A    between atoms: _225  and  _227
REMARK   98  A    between atoms: _227  and  _228
REMARK   99  A    between atoms: _227  and  _230
REMARK  100  A    between atoms: _233  and  _235
REMARK  101  A    between atoms: _235  and  _236
REMARK  102  A    between atoms: _235  and  _238
REMARK  103  A    between atoms: _238  and  _239
REMARK  104  A    between atoms: _239  and  _240
REMARK  105  A    between atoms: _245  and  _247
REMARK  106  A    between atoms: _247  and  _248
REMARK  107  A    between atoms: _250  and  _252
REMARK  108  A    between atoms: _252  and  _253
REMARK  109  A    between atoms: _252  and  _255
REMARK  110  A    between atoms: _255  and  _256
REMARK  111  A    between atoms: _256  and  _257
REMARK  112  A    between atoms: _262  and  _264
REMARK  113  A    between atoms: _264  and  _265
REMARK  114  A    between atoms: _264  and  _267
REMARK  115  A    between atoms: _267  and  _268
REMARK  116  A    between atoms: _271  and  _273
REMARK  117  A    between atoms: _273  and  _274
REMARK  118  A    between atoms: _273  and  _276
REMARK  119  A    between atoms: _276  and  _277
REMARK  120  A    between atoms: _277  and  _278
REMARK  121  A    between atoms: _281  and  _283
REMARK  122  A    between atoms: _283  and  _284
REMARK  123  A    between atoms: _283  and  _286
REMARK  124  A    between atoms: _286  and  _287
REMARK  125  A    between atoms: _289  and  _291
REMARK  126  A    between atoms: _291  and  _292
REMARK  127  A    between atoms: _291  and  _294
REMARK  128  A    between atoms: _294  and  _295
REMARK  129  A    between atoms: _298  and  _300
REMARK  130  A    between atoms: _300  and  _301
REMARK  131  A    between atoms: _303  and  _305
REMARK  132  A    between atoms: _305  and  _306
REMARK  133  A    between atoms: _308  and  _310
REMARK  134  A    between atoms: _310  and  _311
REMARK  135  A    between atoms: _310  and  _313
REMARK  136  A    between atoms: _313  and  _314
REMARK  137  A    between atoms: _317  and  _319
REMARK  138  A    between atoms: _319  and  _320
REMARK  139  A    between atoms: _319  and  _322
REMARK  140  A    between atoms: _322  and  _323
REMARK  141  A    between atoms: _325  and  _327
REMARK  142  A    between atoms: _327  and  _328
REMARK  143  A    between atoms: _327  and  _330
REMARK  144  A    between atoms: _330  and  _331
REMARK  145  A    between atoms: _336  and  _338
REMARK  146  A    between atoms: _338  and  _339
REMARK  147  A    between atoms: _338  and  _341
REMARK  148  A    between atoms: _341  and  _342
REMARK  149  A    between atoms: _345  and  _347
REMARK  150  A    between atoms: _347  and  _348
REMARK  151  A    between atoms: _351  and  _353
REMARK  152  A    between atoms: _353  and  _354
REMARK  153  A    between atoms: _353  and  _356
REMARK  154  A    between atoms: _356  and  _357
REMARK  155  A    between atoms: _359  and  _361
REMARK  156  A    between atoms: _361  and  _362
REMARK  157  A    between atoms: _361  and  _364
REMARK  158  A    between atoms: _364  and  _365
REMARK  159  A    between atoms: _367  and  _369
REMARK  160  A    between atoms: _369  and  _370
REMARK  161  A    between atoms: _369  and  _372
REMARK  162  A    between atoms: _372  and  _373
REMARK  163  A    between atoms: _373  and  _374
REMARK  164  A    between atoms: _379  and  _381
REMARK  165  A    between atoms: _381  and  _382
REMARK  166  A    between atoms: _381  and  _384
REMARK  167  A    between atoms: _384  and  _385
REMARK  168  A    between atoms: _388  and  _390
REMARK  169  A    between atoms: _390  and  _391
REMARK  170  A    between atoms: _390  and  _393
REMARK  171  A    between atoms: _393  and  _394
REMARK  172  A    between atoms: _400  and  _402
REMARK  173  A    between atoms: _402  and  _403
REMARK  174  A    between atoms: _402  and  _405
REMARK  175  A    between atoms: _405  and  _406
REMARK  176  A    between atoms: _409  and  _411
REMARK  177  A    between atoms: _411  and  _412
REMARK  178  A    between atoms: _411  and  _414
REMARK  179  A    between atoms: _414  and  _415
REMARK  180  A    between atoms: _418  and  _420
REMARK  181  A    between atoms: _420  and  _421
REMARK  182  A    between atoms: _420  and  _423
REMARK  183  A    between atoms: _423  and  _424
REMARK  184  A    between atoms: _424  and  _425
REMARK  185  A    between atoms: _428  and  _430
REMARK  186  A    between atoms: _430  and  _431
REMARK  187  A    between atoms: _430  and  _433
REMARK  188  A    between atoms: _433  and  _434
REMARK  189  A    between atoms: _439  and  _440
REMARK  190  A    between atoms: _442  and  _444
REMARK  191  A    between atoms: _444  and  _445
REMARK  192  A    between atoms: _444  and  _447
REMARK  193  A    between atoms: _447  and  _448
REMARK  194  A    between atoms: _451  and  _453
REMARK  195  A    between atoms: _453  and  _454
REMARK  196  A    between atoms: _453  and  _456
REMARK  197  A    between atoms: _456  and  _457
REMARK  198  A    between atoms: _457  and  _458
REMARK  199  A    between atoms: _463  and  _465
REMARK  200  A    between atoms: _465  and  _466
REMARK  201  A    between atoms: _465  and  _468
REMARK  202  A    between atoms: _468  and  _469
REMARK  203  A    between atoms: _474  and  _475
REMARK  204  A    between atoms: _477  and  _479
REMARK  205  A    between atoms: _479  and  _480
REMARK  206  A    between atoms: _479  and  _482
REMARK  207  A    between atoms: _482  and  _483
REMARK  208  A    between atoms: _486  and  _488
REMARK  209  A    between atoms: _488  and  _489
REMARK  210  A    between atoms: _488  and  _491
REMARK  211  A    between atoms: _491  and  _492
REMARK  212  A    between atoms: _497  and  _498
REMARK  213  A    between atoms: _500  and  _502
REMARK  214  A    between atoms: _502  and  _503
REMARK  215  A    between atoms: _502  and  _505
REMARK  216  A    between atoms: _505  and  _506
REMARK  217  A    between atoms: _511  and  _512
REMARK  218  A    between atoms: _515  and  _516
REMARK  219  A    between atoms: _521  and  _523
REMARK  220  A    between atoms: _523  and  _524
REMARK  221  A    between atoms: _523  and  _526
REMARK  222  A    between atoms: _526  and  _527
REMARK  223  A    between atoms: _530  and  _532
REMARK  224  A    between atoms: _532  and  _533
REMARK  225  A    between atoms: _532  and  _535
REMARK  226  A    between atoms: _535  and  _536
REMARK                            x       y       z     vdW  Elec       q    Type
REMARK                         _______ _______ _______ _____ _____    ______ ____
ROOT
ATOM      1  O   HOH     1      28.862  34.991  22.765  0.00  0.00    +0.000 OA
ENDROOT
TORSDOF 0
REMARK  Name = ../refined-set-2016/3aaq/3aaq_pocket.pdb
REMARK  226 active torsions:
REMARK  status: ('A' for Active; 'I' for Inactive)
REMARK    1  A    between atoms: _1  and  _3
REMARK    2  A    between atoms: _3  and  _4
REMARK    3  A    between atoms: _3  and  _6
REMARK    4  A    between atoms: _6  and  _7
REMARK    5  A    between atoms: _10  and  _12
REMARK    6  A    between atoms: _12  and  _13
REMARK    7  A    between atoms: _16  and  _18
REMARK    8  A    between atoms: _18  and  _19
REMARK    9  A    between atoms: _21  and  _23
REMARK   10  A    between atoms: _23  and  _24
REMARK   11  A    between atoms: _23  and  _26
REMARK   12  A    between atoms: _26  and  _27
REMARK   13  A    between atoms: _29  and  _31
REMARK   14  A    between atoms: _31  and  _32
REMARK   15  A    between atoms: _31  and  _34
REMARK   16  A    between atoms: _34  and  _35
REMARK   17  A    between atoms: _38  and  _40
REMARK   18  A    between atoms: _40  and  _41
REMARK   19  A    between atoms: _43  and  _45
REMARK   20  A    between atoms: _45  and  _46
REMARK   21  A    between atoms: _45  and  _48
REMARK   22  A    between atoms: _48  and  _49
REMARK   23  A    between atoms: _51  and  _53
REMARK   24  A    between atoms: _53  and  _54
REMARK   25  A    between atoms: _53  and  _56
REMARK   26  A    between atoms: _56  and  _57
REMARK   27  A    between atoms: _57  and  _58
REMARK   28  A    between atoms: _58  and  _59
REMARK   29  A    between atoms: _68  and  _70
REMARK   30  A    between atoms: _70  and  _71
REMARK   31  A    between atoms: _70  and  _73
REMARK   32  A    between atoms: _73  and  _74
REMARK   33  A    between atoms: _74  and  _75
REMARK   34  A    between atoms: _75  and  _76
REMARK   35  A    between atoms: _76  and  _77
REMARK   36  A    between atoms: _81  and  _83
REMARK   37  A    between atoms: _83  and  _84
REMARK   38  A    between atoms: _83  and  _86
REMARK   39  A    between atoms: _86  and  _87
REMARK   40  A    between atoms: _90  and  _92
REMARK   41  A    between atoms: _92  and  _93
REMARK   42  A    between atoms: _92  and  _95
REMARK   43  A    between atoms: _95  and  _96
REMARK   44  A    between atoms: _96  and  _97
REMARK   45  A    between atoms: _97  and  _98
REMARK   46  A    between atoms: _98  and  _99
REMARK   47  A    between atoms: _104  and  _105
REMARK   48  A    between atoms: _110  and  _112
REMARK   49  A    between atoms: _112  and  _113
REMARK   50  A    between atoms: _115  and  _117
REMARK   51  A    between atoms: _117  and  _118
REMARK   52  A    between atoms: _117  and  _120
REMARK   53  A    between atoms: _120  and  _121
REMARK   54  A    between atoms: _127  and  _129
REMARK   55  A    between atoms: _129  and  _130
REMARK   56  A    between atoms: _129  and  _132
REMARK   57  A    between atoms: _132  and  _133
REMARK   58  A    between atoms: _136  and  _138
REMARK   59  A    between atoms: _138  and  _139
REMARK   60  A    between atoms: _142  and  _144
REMARK   61  A    between atoms: _144  and  _145
REMARK   62  A    between atoms: _147  and  _149
REMARK   63  A    between atoms: _149  and  _150
REMARK   64  A    between atoms: _149  and  _152
REMARK   65  A    between atoms: _152  and  _153
REMARK   66  A    between atoms: _153  and  _154
REMARK   67  A    between atoms: _156  and  _158
REMARK   68  A    between atoms: _158  and  _159
REMARK   69  A    between atoms: _158  and  _161
REMARK   70  A    between atoms: _161  and  _162
REMARK   71  A    between atoms: _162  and  _163
REMARK   72  A    between atoms: _163  and  _164
REMARK   73  A    between atoms: _173  and  _175
REMARK   74  A    between atoms: _175  and  _176
REMARK   75  A    between atoms: _175  and  _178
REMARK   76  A    between atoms: _178  and  _179
REMARK   77  A    between atoms: _179  and  _180
REMARK   78  A    between atoms: _183  and  _185
REMARK   79  A    between atoms: _185  and  _186
REMARK   80  A    between atoms: _185  and  _188
REMARK   81  A    between atoms: _188  and  _189
REMARK   82  A    between atoms: _192  and  _194
REMARK   83  A    between atoms: _194  and  _195
REMARK   84  A    between atoms: _194  and  _197
REMARK   85  A    between atoms: _197  and  _198
REMARK   86  A    between atoms: _198  and  _199
REMARK   87  A    between atoms: _201  and  _203
REMARK   88  A    between atoms: _203  and  _204
REMARK   89  A    between atoms: _206  and  _208
REMARK   90  A    between atoms: _208  and  _209
REMARK   91  A    between atoms: _211  and  _213
REMARK   92  A    between atoms: _213  and  _214
REMARK   93  A    between atoms: _217  and  _219
REMARK   94  A    between atoms: _219  and  _220
REMARK   95  A    between atoms: _219  and  _222
REMARK   96  A    between atoms: _222  and  _223
REMARK   97  A    between atoms: _225  and  _227
REMARK   98  A    between atoms: _227  and  _228
REMARK   99  A    between atoms: _227  and  _230
REMARK  100  A    between atoms: _233  and  _235
REMARK  101  A    between atoms: _235  and  _236
REMARK  102  A    between atoms: _235  and  _238
REMARK  103  A    between atoms: _238  and  _239
REMARK  104  A    between atoms: _239  and  _240
REMARK  105  A    between atoms: _245  and  _247
REMARK  106  A    between atoms: _247  and  _248
REMARK  107  A    between atoms: _250  and  _252
REMARK  108  A    between atoms: _252  and  _253
REMARK  109  A    between atoms: _252  and  _255
REMARK  110  A    between atoms: _255  and  _256
REMARK  111  A    between atoms: _256  and  _257
REMARK  112  A    between atoms: _262  and  _264
REMARK  113  A    between atoms: _264  and  _265
REMARK  114  A    between atoms: _264  and  _267
REMARK  115  A    between atoms: _267  and  _268
REMARK  116  A    between atoms: _271  and  _273
REMARK  117  A    between atoms: _273  and  _274
REMARK  118  A    between atoms: _273  and  _276
REMARK  119  A    between atoms: _276  and  _277
REMARK  120  A    between atoms: _277  and  _278
REMARK  121  A    between atoms: _281  and  _283
REMARK  122  A    between atoms: _283  and  _284
REMARK  123  A    between atoms: _283  and  _286
REMARK  124  A    between atoms: _286  and  _287
REMARK  125  A    between atoms: _289  and  _291
REMARK  126  A    between atoms: _291  and  _292
REMARK  127  A    between atoms: _291  and  _294
REMARK  128  A    between atoms: _294  and  _295
REMARK  129  A    between atoms: _298  and  _300
REMARK  130  A    between atoms: _300  and  _301
REMARK  131  A    between atoms: _303  and  _305
REMARK  132  A    between atoms: _305  and  _306
REMARK  133  A    between atoms: _308  and  _310
REMARK  134  A    between atoms: _310  and  _311
REMARK  135  A    between atoms: _310  and  _313
REMARK  136  A    between atoms: _313  and  _314
REMARK  137  A    between atoms: _317  and  _319
REMARK  138  A    between atoms: _319  and  _320
REMARK  139  A    between atoms: _319  and  _322
REMARK  140  A    between atoms: _322  and  _323
REMARK  141  A    between atoms: _325  and  _327
REMARK  142  A    between atoms: _327  and  _328
REMARK  143  A    between atoms: _327  and  _330
REMARK  144  A    between atoms: _330  and  _331
REMARK  145  A    between atoms: _336  and  _338
REMARK  146  A    between atoms: _338  and  _339
REMARK  147  A    between atoms: _338  and  _341
REMARK  148  A    between atoms: _341  and  _342
REMARK  149  A    between atoms: _345  and  _347
REMARK  150  A    between atoms: _347  and  _348
REMARK  151  A    between atoms: _351  and  _353
REMARK  152  A    between atoms: _353  and  _354
REMARK  153  A    between atoms: _353  and  _356
REMARK  154  A    between atoms: _356  and  _357
REMARK  155  A    between atoms: _359  and  _361
REMARK  156  A    between atoms: _361  and  _362
REMARK  157  A    between atoms: _361  and  _364
REMARK  158  A    between atoms: _364  and  _365
REMARK  159  A    between atoms: _367  and  _369
REMARK  160  A    between atoms: _369  and  _370
REMARK  161  A    between atoms: _369  and  _372
REMARK  162  A    between atoms: _372  and  _373
REMARK  163  A    between atoms: _373  and  _374
REMARK  164  A    between atoms: _379  and  _381
REMARK  165  A    between atoms: _381  and  _382
REMARK  166  A    between atoms: _381  and  _384
REMARK  167  A    between atoms: _384  and  _385
REMARK  168  A    between atoms: _388  and  _390
REMARK  169  A    between atoms: _390  and  _391
REMARK  170  A    between atoms: _390  and  _393
REMARK  171  A    between atoms: _393  and  _394
REMARK  172  A    between atoms: _400  and  _402
REMARK  173  A    between atoms: _402  and  _403
REMARK  174  A    between atoms: _402  and  _405
REMARK  175  A    between atoms: _405  and  _406
REMARK  176  A    between atoms: _409  and  _411
REMARK  177  A    between atoms: _411  and  _412
REMARK  178  A    between atoms: _411  and  _414
REMARK  179  A    between atoms: _414  and  _415
REMARK  180  A    between atoms: _418  and  _420
REMARK  181  A    between atoms: _420  and  _421
REMARK  182  A    between atoms: _420  and  _423
REMARK  183  A    between atoms: _423  and  _424
REMARK  184  A    between atoms: _424  and  _425
REMARK  185  A    between atoms: _428  and  _430
REMARK  186  A    between atoms: _430  and  _431
REMARK  187  A    between atoms: _430  and  _433
REMARK  188  A    between atoms: _433  and  _434
REMARK  189  A    between atoms: _439  and  _440
REMARK  190  A    between atoms: _442  and  _444
REMARK  191  A    between atoms: _444  and  _445
REMARK  192  A    between atoms: _444  and  _447
REMARK  193  A    between atoms: _447  and  _448
REMARK  194  A    between atoms: _451  and  _453
REMARK  195  A    between atoms: _453  and  _454
REMARK  196  A    between atoms: _453  and  _456
REMARK  197  A    between atoms: _456  and  _457
REMARK  198  A    between atoms: _457  and  _458
REMARK  199  A    between atoms: _463  and  _465
REMARK  200  A    between atoms: _465  and  _466
REMARK  201  A    between atoms: _465  and  _468
REMARK  202  A    between atoms: _468  and  _469
REMARK  203  A    between atoms: _474  and  _475
REMARK  204  A    between atoms: _477  and  _479
REMARK  205  A    between atoms: _479  and  _480
REMARK  206  A    between atoms: _479  and  _482
REMARK  207  A    between atoms: _482  and  _483
REMARK  208  A    between atoms: _486  and  _488
REMARK  209  A    between atoms: _488  and  _489
REMARK  210  A    between atoms: _488  and  _491
REMARK  211  A    between atoms: _491  and  _492
REMARK  212  A    between atoms: _497  and  _498
REMARK  213  A    between atoms: _500  and  _502
REMARK  214  A    between atoms: _502  and  _503
REMARK  215  A    between atoms: _502  and  _505
REMARK  216  A    between atoms: _505  and  _506
REMARK  217  A    between atoms: _511  and  _512
REMARK  218  A    between atoms: _515  and  _516
REMARK  219  A    between atoms: _521  and  _523
REMARK  220  A    between atoms: _523  and  _524
REMARK  221  A    between atoms: _523  and  _526
REMARK  222  A    between atoms: _526  and  _527
REMARK  223  A    between atoms: _530  and  _532
REMARK  224  A    between atoms: _532  and  _533
REMARK  225  A    between atoms: _532  and  _535
REMARK  226  A    between atoms: _535  and  _536
REMARK                            x       y       z     vdW  Elec       q    Type
REMARK                         _______ _______ _______ _____ _____    ______ ____
ROOT
ATOM      1  O   HOH     1      25.395  31.249  20.727  0.00  0.00    +0.000 OA
ENDROOT
TORSDOF 0
REMARK  Name = ../refined-set-2016/3aaq/3aaq_pocket.pdb
REMARK  226 active torsions:
REMARK  status: ('A' for Active; 'I' for Inactive)
REMARK    1  A    between atoms: _1  and  _3
REMARK    2  A    between atoms: _3  and  _4
REMARK    3  A    between atoms: _3  and  _6
REMARK    4  A    between atoms: _6  and  _7
REMARK    5  A    between atoms: _10  and  _12
REMARK    6  A    between atoms: _12  and  _13
REMARK    7  A    between atoms: _16  and  _18
REMARK    8  A    between atoms: _18  and  _19
REMARK    9  A    between atoms: _21  and  _23
REMARK   10  A    between atoms: _23  and  _24
REMARK   11  A    between atoms: _23  and  _26
REMARK   12  A    between atoms: _26  and  _27
REMARK   13  A    between atoms: _29  and  _31
REMARK   14  A    between atoms: _31  and  _32
REMARK   15  A    between atoms: _31  and  _34
REMARK   16  A    between atoms: _34  and  _35
REMARK   17  A    between atoms: _38  and  _40
REMARK   18  A    between atoms: _40  and  _41
REMARK   19  A    between atoms: _43  and  _45
REMARK   20  A    between atoms: _45  and  _46
REMARK   21  A    between atoms: _45  and  _48
REMARK   22  A    between atoms: _48  and  _49
REMARK   23  A    between atoms: _51  and  _53
REMARK   24  A    between atoms: _53  and  _54
REMARK   25  A    between atoms: _53  and  _56
REMARK   26  A    between atoms: _56  and  _57
REMARK   27  A    between atoms: _57  and  _58
REMARK   28  A    between atoms: _58  and  _59
REMARK   29  A    between atoms: _68  and  _70
REMARK   30  A    between atoms: _70  and  _71
REMARK   31  A    between atoms: _70  and  _73
REMARK   32  A    between atoms: _73  and  _74
REMARK   33  A    between atoms: _74  and  _75
REMARK   34  A    between atoms: _75  and  _76
REMARK   35  A    between atoms: _76  and  _77
REMARK   36  A    between atoms: _81  and  _83
REMARK   37  A    between atoms: _83  and  _84
REMARK   38  A    between atoms: _83  and  _86
REMARK   39  A    between atoms: _86  and  _87
REMARK   40  A    between atoms: _90  and  _92
REMARK   41  A    between atoms: _92  and  _93
REMARK   42  A    between atoms: _92  and  _95
REMARK   43  A    between atoms: _95  and  _96
REMARK   44  A    between atoms: _96  and  _97
REMARK   45  A    between atoms: _97  and  _98
REMARK   46  A    between atoms: _98  and  _99
REMARK   47  A    between atoms: _104  and  _105
REMARK   48  A    between atoms: _110  and  _112
REMARK   49  A    between atoms: _112  and  _113
REMARK   50  A    between atoms: _115  and  _117
REMARK   51  A    between atoms: _117  and  _118
REMARK   52  A    between atoms: _117  and  _120
REMARK   53  A    between atoms: _120  and  _121
REMARK   54  A    between atoms: _127  and  _129
REMARK   55  A    between atoms: _129  and  _130
REMARK   56  A    between atoms: _129  and  _132
REMARK   57  A    between atoms: _132  and  _133
REMARK   58  A    between atoms: _136  and  _138
REMARK   59  A    between atoms: _138  and  _139
REMARK   60  A    between atoms: _142  and  _144
REMARK   61  A    between atoms: _144  and  _145
REMARK   62  A    between atoms: _147  and  _149
REMARK   63  A    between atoms: _149  and  _150
REMARK   64  A    between atoms: _149  and  _152
REMARK   65  A    between atoms: _152  and  _153
REMARK   66  A    between atoms: _153  and  _154
REMARK   67  A    between atoms: _156  and  _158
REMARK   68  A    between atoms: _158  and  _159
REMARK   69  A    between atoms: _158  and  _161
REMARK   70  A    between atoms: _161  and  _162
REMARK   71  A    between atoms: _162  and  _163
REMARK   72  A    between atoms: _163  and  _164
REMARK   73  A    between atoms: _173  and  _175
REMARK   74  A    between atoms: _175  and  _176
REMARK   75  A    between atoms: _175  and  _178
REMARK   76  A    between atoms: _178  and  _179
REMARK   77  A    between atoms: _179  and  _180
REMARK   78  A    between atoms: _183  and  _185
REMARK   79  A    between atoms: _185  and  _186
REMARK   80  A    between atoms: _185  and  _188
REMARK   81  A    between atoms: _188  and  _189
REMARK   82  A    between atoms: _192  and  _194
REMARK   83  A    between atoms: _194  and  _195
REMARK   84  A    between atoms: _194  and  _197
REMARK   85  A    between atoms: _197  and  _198
REMARK   86  A    between atoms: _198  and  _199
REMARK   87  A    between atoms: _201  and  _203
REMARK   88  A    between atoms: _203  and  _204
REMARK   89  A    between atoms: _206  and  _208
REMARK   90  A    between atoms: _208  and  _209
REMARK   91  A    between atoms: _211  and  _213
REMARK   92  A    between atoms: _213  and  _214
REMARK   93  A    between atoms: _217  and  _219
REMARK   94  A    between atoms: _219  and  _220
REMARK   95  A    between atoms: _219  and  _222
REMARK   96  A    between atoms: _222  and  _223
REMARK   97  A    between atoms: _225  and  _227
REMARK   98  A    between atoms: _227  and  _228
REMARK   99  A    between atoms: _227  and  _230
REMARK  100  A    between atoms: _233  and  _235
REMARK  101  A    between atoms: _235  and  _236
REMARK  102  A    between atoms: _235  and  _238
REMARK  103  A    between atoms: _238  and  _239
REMARK  104  A    between atoms: _239  and  _240
REMARK  105  A    between atoms: _245  and  _247
REMARK  106  A    between atoms: _247  and  _248
REMARK  107  A    between atoms: _250  and  _252
REMARK  108  A    between atoms: _252  and  _253
REMARK  109  A    between atoms: _252  and  _255
REMARK  110  A    between atoms: _255  and  _256
REMARK  111  A    between atoms: _256  and  _257
REMARK  112  A    between atoms: _262  and  _264
REMARK  113  A    between atoms: _264  and  _265
REMARK  114  A    between atoms: _264  and  _267
REMARK  115  A    between atoms: _267  and  _268
REMARK  116  A    between atoms: _271  and  _273
REMARK  117  A    between atoms: _273  and  _274
REMARK  118  A    between atoms: _273  and  _276
REMARK  119  A    between atoms: _276  and  _277
REMARK  120  A    between atoms: _277  and  _278
REMARK  121  A    between atoms: _281  and  _283
REMARK  122  A    between atoms: _283  and  _284
REMARK  123  A    between atoms: _283  and  _286
REMARK  124  A    between atoms: _286  and  _287
REMARK  125  A    between atoms: _289  and  _291
REMARK  126  A    between atoms: _291  and  _292
REMARK  127  A    between atoms: _291  and  _294
REMARK  128  A    between atoms: _294  and  _295
REMARK  129  A    between atoms: _298  and  _300
REMARK  130  A    between atoms: _300  and  _301
REMARK  131  A    between atoms: _303  and  _305
REMARK  132  A    between atoms: _305  and  _306
REMARK  133  A    between atoms: _308  and  _310
REMARK  134  A    between atoms: _310  and  _311
REMARK  135  A    between atoms: _310  and  _313
REMARK  136  A    between atoms: _313  and  _314
REMARK  137  A    between atoms: _317  and  _319
REMARK  138  A    between atoms: _319  and  _320
REMARK  139  A    between atoms: _319  and  _322
REMARK  140  A    between atoms: _322  and  _323
REMARK  141  A    between atoms: _325  and  _327
REMARK  142  A    between atoms: _327  and  _328
REMARK  143  A    between atoms: _327  and  _330
REMARK  144  A    between atoms: _330  and  _331
REMARK  145  A    between atoms: _336  and  _338
REMARK  146  A    between atoms: _338  and  _339
REMARK  147  A    between atoms: _338  and  _341
REMARK  148  A    between atoms: _341  and  _342
REMARK  149  A    between atoms: _345  and  _347
REMARK  150  A    between atoms: _347  and  _348
REMARK  151  A    between atoms: _351  and  _353
REMARK  152  A    between atoms: _353  and  _354
REMARK  153  A    between atoms: _353  and  _356
REMARK  154  A    between atoms: _356  and  _357
REMARK  155  A    between atoms: _359  and  _361
REMARK  156  A    between atoms: _361  and  _362
REMARK  157  A    between atoms: _361  and  _364
REMARK  158  A    between atoms: _364  and  _365
REMARK  159  A    between atoms: _367  and  _369
REMARK  160  A    between atoms: _369  and  _370
REMARK  161  A    between atoms: _369  and  _372
REMARK  162  A    between atoms: _372  and  _373
REMARK  163  A    between atoms: _373  and  _374
REMARK  164  A    between atoms: _379  and  _381
REMARK  165  A    between atoms: _381  and  _382
REMARK  166  A    between atoms: _381  and  _384
REMARK  167  A    between atoms: _384  and  _385
REMARK  168  A    between atoms: _388  and  _390
REMARK  169  A    between atoms: _390  and  _391
REMARK  170  A    between atoms: _390  and  _393
REMARK  171  A    between atoms: _393  and  _394
REMARK  172  A    between atoms: _400  and  _402
REMARK  173  A    between atoms: _402  and  _403
REMARK  174  A    between atoms: _402  and  _405
REMARK  175  A    between atoms: _405  and  _406
REMARK  176  A    between atoms: _409  and  _411
REMARK  177  A    between atoms: _411  and  _412
REMARK  178  A    between atoms: _411  and  _414
REMARK  179  A    between atoms: _414  and  _415
REMARK  180  A    between atoms: _418  and  _420
REMARK  181  A    between atoms: _420  and  _421
REMARK  182  A    between atoms: _420  and  _423
REMARK  183  A    between atoms: _423  and  _424
REMARK  184  A    between atoms: _424  and  _425
REMARK  185  A    between atoms: _428  and  _430
REMARK  186  A    between atoms: _430  and  _431
REMARK  187  A    between atoms: _430  and  _433
REMARK  188  A    between atoms: _433  and  _434
REMARK  189  A    between atoms: _439  and  _440
REMARK  190  A    between atoms: _442  and  _444
REMARK  191  A    between atoms: _444  and  _445
REMARK  192  A    between atoms: _444  and  _447
REMARK  193  A    between atoms: _447  and  _448
REMARK  194  A    between atoms: _451  and  _453
REMARK  195  A    between atoms: _453  and  _454
REMARK  196  A    between atoms: _453  and  _456
REMARK  197  A    between atoms: _456  and  _457
REMARK  198  A    between atoms: _457  and  _458
REMARK  199  A    between atoms: _463  and  _465
REMARK  200  A    between atoms: _465  and  _466
REMARK  201  A    between atoms: _465  and  _468
REMARK  202  A    between atoms: _468  and  _469
REMARK  203  A    between atoms: _474  and  _475
REMARK  204  A    between atoms: _477  and  _479
REMARK  205  A    between atoms: _479  and  _480
REMARK  206  A    between atoms: _479  and  _482
REMARK  207  A    between atoms: _482  and  _483
REMARK  208  A    between atoms: _486  and  _488
REMARK  209  A    between atoms: _488  and  _489
REMARK  210  A    between atoms: _488  and  _491
REMARK  211  A    between atoms: _491  and  _492
REMARK  212  A    between atoms: _497  and  _498
REMARK  213  A    between atoms: _500  and  _502
REMARK  214  A    between atoms: _502  and  _503
REMARK  215  A    between atoms: _502  and  _505
REMARK  216  A    between atoms: _505  and  _506
REMARK  217  A    between atoms: _511  and  _512
REMARK  218  A    between atoms: _515  and  _516
REMARK  219  A    between atoms: _521  and  _523
REMARK  220  A    between atoms: _523  and  _524
REMARK  221  A    between atoms: _523  and  _526
REMARK  222  A    between atoms: _526  and  _527
REMARK  223  A    between atoms: _530  and  _532
REMARK  224  A    between atoms: _532  and  _533
REMARK  225  A    between atoms: _532  and  _535
REMARK  226  A    between atoms: _535  and  _536
REMARK                            x       y       z     vdW  Elec       q    Type
REMARK                         _______ _______ _______ _____ _____    ______ ____
ROOT
ATOM      1  O   HOH     1      27.790  32.272  22.645  0.00  0.00    +0.000 OA
ENDROOT
TORSDOF 0
REMARK  Name = ../refined-set-2016/3aaq/3aaq_pocket.pdb
REMARK  226 active torsions:
REMARK  status: ('A' for Active; 'I' for Inactive)
REMARK    1  A    between atoms: _1  and  _3
REMARK    2  A    between atoms: _3  and  _4
REMARK    3  A    between atoms: _3  and  _6
REMARK    4  A    between atoms: _6  and  _7
REMARK    5  A    between atoms: _10  and  _12
REMARK    6  A    between atoms: _12  and  _13
REMARK    7  A    between atoms: _16  and  _18
REMARK    8  A    between atoms: _18  and  _19
REMARK    9  A    between atoms: _21  and  _23
REMARK   10  A    between atoms: _23  and  _24
REMARK   11  A    between atoms: _23  and  _26
REMARK   12  A    between atoms: _26  and  _27
REMARK   13  A    between atoms: _29  and  _31
REMARK   14  A    between atoms: _31  and  _32
REMARK   15  A    between atoms: _31  and  _34
REMARK   16  A    between atoms: _34  and  _35
REMARK   17  A    between atoms: _38  and  _40
REMARK   18  A    between atoms: _40  and  _41
REMARK   19  A    between atoms: _43  and  _45
REMARK   20  A    between atoms: _45  and  _46
REMARK   21  A    between atoms: _45  and  _48
REMARK   22  A    between atoms: _48  and  _49
REMARK   23  A    between atoms: _51  and  _53
REMARK   24  A    between atoms: _53  and  _54
REMARK   25  A    between atoms: _53  and  _56
REMARK   26  A    between atoms: _56  and  _57
REMARK   27  A    between atoms: _57  and  _58
REMARK   28  A    between atoms: _58  and  _59
REMARK   29  A    between atoms: _68  and  _70
REMARK   30  A    between atoms: _70  and  _71
REMARK   31  A    between atoms: _70  and  _73
REMARK   32  A    between atoms: _73  and  _74
REMARK   33  A    between atoms: _74  and  _75
REMARK   34  A    between atoms: _75  and  _76
REMARK   35  A    between atoms: _76  and  _77
REMARK   36  A    between atoms: _81  and  _83
REMARK   37  A    between atoms: _83  and  _84
REMARK   38  A    between atoms: _83  and  _86
REMARK   39  A    between atoms: _86  and  _87
REMARK   40  A    between atoms: _90  and  _92
REMARK   41  A    between atoms: _92  and  _93
REMARK   42  A    between atoms: _92  and  _95
REMARK   43  A    between atoms: _95  and  _96
REMARK   44  A    between atoms: _96  and  _97
REMARK   45  A    between atoms: _97  and  _98
REMARK   46  A    between atoms: _98  and  _99
REMARK   47  A    between atoms: _104  and  _105
REMARK   48  A    between atoms: _110  and  _112
REMARK   49  A    between atoms: _112  and  _113
REMARK   50  A    between atoms: _115  and  _117
REMARK   51  A    between atoms: _117  and  _118
REMARK   52  A    between atoms: _117  and  _120
REMARK   53  A    between atoms: _120  and  _121
REMARK   54  A    between atoms: _127  and  _129
REMARK   55  A    between atoms: _129  and  _130
REMARK   56  A    between atoms: _129  and  _132
REMARK   57  A    between atoms: _132  and  _133
REMARK   58  A    between atoms: _136  and  _138
REMARK   59  A    between atoms: _138  and  _139
REMARK   60  A    between atoms: _142  and  _144
REMARK   61  A    between atoms: _144  and  _145
REMARK   62  A    between atoms: _147  and  _149
REMARK   63  A    between atoms: _149  and  _150
REMARK   64  A    between atoms: _149  and  _152
REMARK   65  A    between atoms: _152  and  _153
REMARK   66  A    between atoms: _153  and  _154
REMARK   67  A    between atoms: _156  and  _158
REMARK   68  A    between atoms: _158  and  _159
REMARK   69  A    between atoms: _158  and  _161
REMARK   70  A    between atoms: _161  and  _162
REMARK   71  A    between atoms: _162  and  _163
REMARK   72  A    between atoms: _163  and  _164
REMARK   73  A    between atoms: _173  and  _175
REMARK   74  A    between atoms: _175  and  _176
REMARK   75  A    between atoms: _175  and  _178
REMARK   76  A    between atoms: _178  and  _179
REMARK   77  A    between atoms: _179  and  _180
REMARK   78  A    between atoms: _183  and  _185
REMARK   79  A    between atoms: _185  and  _186
REMARK   80  A    between atoms: _185  and  _188
REMARK   81  A    between atoms: _188  and  _189
REMARK   82  A    between atoms: _192  and  _194
REMARK   83  A    between atoms: _194  and  _195
REMARK   84  A    between atoms: _194  and  _197
REMARK   85  A    between atoms: _197  and  _198
REMARK   86  A    between atoms: _198  and  _199
REMARK   87  A    between atoms: _201  and  _203
REMARK   88  A    between atoms: _203  and  _204
REMARK   89  A    between atoms: _206  and  _208
REMARK   90  A    between atoms: _208  and  _209
REMARK   91  A    between atoms: _211  and  _213
REMARK   92  A    between atoms: _213  and  _214
REMARK   93  A    between atoms: _217  and  _219
REMARK   94  A    between atoms: _219  and  _220
REMARK   95  A    between atoms: _219  and  _222
REMARK   96  A    between atoms: _222  and  _223
REMARK   97  A    between atoms: _225  and  _227
REMARK   98  A    between atoms: _227  and  _228
REMARK   99  A    between atoms: _227  and  _230
REMARK  100  A    between atoms: _233  and  _235
REMARK  101  A    between atoms: _235  and  _236
REMARK  102  A    between atoms: _235  and  _238
REMARK  103  A    between atoms: _238  and  _239
REMARK  104  A    between atoms: _239  and  _240
REMARK  105  A    between atoms: _245  and  _247
REMARK  106  A    between atoms: _247  and  _248
REMARK  107  A    between atoms: _250  and  _252
REMARK  108  A    between atoms: _252  and  _253
REMARK  109  A    between atoms: _252  and  _255
REMARK  110  A    between atoms: _255  and  _256
REMARK  111  A    between atoms: _256  and  _257
REMARK  112  A    between atoms: _262  and  _264
REMARK  113  A    between atoms: _264  and  _265
REMARK  114  A    between atoms: _264  and  _267
REMARK  115  A    between atoms: _267  and  _268
REMARK  116  A    between atoms: _271  and  _273
REMARK  117  A    between atoms: _273  and  _274
REMARK  118  A    between atoms: _273  and  _276
REMARK  119  A    between atoms: _276  and  _277
REMARK  120  A    between atoms: _277  and  _278
REMARK  121  A    between atoms: _281  and  _283
REMARK  122  A    between atoms: _283  and  _284
REMARK  123  A    between atoms: _283  and  _286
REMARK  124  A    between atoms: _286  and  _287
REMARK  125  A    between atoms: _289  and  _291
REMARK  126  A    between atoms: _291  and  _292
REMARK  127  A    between atoms: _291  and  _294
REMARK  128  A    between atoms: _294  and  _295
REMARK  129  A    between atoms: _298  and  _300
REMARK  130  A    between atoms: _300  and  _301
REMARK  131  A    between atoms: _303  and  _305
REMARK  132  A    between atoms: _305  and  _306
REMARK  133  A    between atoms: _308  and  _310
REMARK  134  A    between atoms: _310  and  _311
REMARK  135  A    between atoms: _310  and  _313
REMARK  136  A    between atoms: _313  and  _314
REMARK  137  A    between atoms: _317  and  _319
REMARK  138  A    between atoms: _319  and  _320
REMARK  139  A    between atoms: _319  and  _322
REMARK  140  A    between atoms: _322  and  _323
REMARK  141  A    between atoms: _325  and  _327
REMARK  142  A    between atoms: _327  and  _328
REMARK  143  A    between atoms: _327  and  _330
REMARK  144  A    between atoms: _330  and  _331
REMARK  145  A    between atoms: _336  and  _338
REMARK  146  A    between atoms: _338  and  _339
REMARK  147  A    between atoms: _338  and  _341
REMARK  148  A    between atoms: _341  and  _342
REMARK  149  A    between atoms: _345  and  _347
REMARK  150  A    between atoms: _347  and  _348
REMARK  151  A    between atoms: _351  and  _353
REMARK  152  A    between atoms: _353  and  _354
REMARK  153  A    between atoms: _353  and  _356
REMARK  154  A    between atoms: _356  and  _357
REMARK  155  A    between atoms: _359  and  _361
REMARK  156  A    between atoms: _361  and  _362
REMARK  157  A    between atoms: _361  and  _364
REMARK  158  A    between atoms: _364  and  _365
REMARK  159  A    between atoms: _367  and  _369
REMARK  160  A    between atoms: _369  and  _370
REMARK  161  A    between atoms: _369  and  _372
REMARK  162  A    between atoms: _372  and  _373
REMARK  163  A    between atoms: _373  and  _374
REMARK  164  A    between atoms: _379  and  _381
REMARK  165  A    between atoms: _381  and  _382
REMARK  166  A    between atoms: _381  and  _384
REMARK  167  A    between atoms: _384  and  _385
REMARK  168  A    between atoms: _388  and  _390
REMARK  169  A    between atoms: _390  and  _391
REMARK  170  A    between atoms: _390  and  _393
REMARK  171  A    between atoms: _393  and  _394
REMARK  172  A    between atoms: _400  and  _402
REMARK  173  A    between atoms: _402  and  _403
REMARK  174  A    between atoms: _402  and  _405
REMARK  175  A    between atoms: _405  and  _406
REMARK  176  A    between atoms: _409  and  _411
REMARK  177  A    between atoms: _411  and  _412
REMARK  178  A    between atoms: _411  and  _414
REMARK  179  A    between atoms: _414  and  _415
REMARK  180  A    between atoms: _418  and  _420
REMARK  181  A    between atoms: _420  and  _421
REMARK  182  A    between atoms: _420  and  _423
REMARK  183  A    between atoms: _423  and  _424
REMARK  184  A    between atoms: _424  and  _425
REMARK  185  A    between atoms: _428  and  _430
REMARK  186  A    between atoms: _430  and  _431
REMARK  187  A    between atoms: _430  and  _433
REMARK  188  A    between atoms: _433  and  _434
REMARK  189  A    between atoms: _439  and  _440
REMARK  190  A    between atoms: _442  and  _444
REMARK  191  A    between atoms: _444  and  _445
REMARK  192  A    between atoms: _444  and  _447
REMARK  193  A    between atoms: _447  and  _448
REMARK  194  A    between atoms: _451  and  _453
REMARK  195  A    between atoms: _453  and  _454
REMARK  196  A    between atoms: _453  and  _456
REMARK  197  A    between atoms: _456  and  _457
REMARK  198  A    between atoms: _457  and  _458
REMARK  199  A    between atoms: _463  and  _465
REMARK  200  A    between atoms: _465  and  _466
REMARK  201  A    between atoms: _465  and  _468
REMARK  202  A    between atoms: _468  and  _469
REMARK  203  A    between atoms: _474  and  _475
REMARK  204  A    between atoms: _477  and  _479
REMARK  205  A    between atoms: _479  and  _480
REMARK  206  A    between atoms: _479  and  _482
REMARK  207  A    between atoms: _482  and  _483
REMARK  208  A    between atoms: _486  and  _488
REMARK  209  A    between atoms: _488  and  _489
REMARK  210  A    between atoms: _488  and  _491
REMARK  211  A    between atoms: _491  and  _492
REMARK  212  A    between atoms: _497  and  _498
REMARK  213  A    between atoms: _500  and  _502
REMARK  214  A    between atoms: _502  and  _503
REMARK  215  A    between atoms: _502  and  _505
REMARK  216  A    between atoms: _505  and  _506
REMARK  217  A    between atoms: _511  and  _512
REMARK  218  A    between atoms: _515  and  _516
REMARK  219  A    between atoms: _521  and  _523
REMARK  220  A    between atoms: _523  and  _524
REMARK  221  A    between atoms: _523  and  _526
REMARK  222  A    between atoms: _526  and  _527
REMARK  223  A    between atoms: _530  and  _532
REMARK  224  A    between atoms: _532  and  _533
REMARK  225  A    between atoms: _532  and  _535
REMARK  226  A    between atoms: _535  and  _536
REMARK                            x       y       z     vdW  Elec       q    Type
REMARK                         _______ _______ _______ _____ _____    ______ ____
ROOT
ATOM      1  O   HOH     1      22.772  34.363  33.300  0.00  0.00    +0.000 OA
ENDROOT
TORSDOF 0
REMARK  Name = ../refined-set-2016/3aaq/3aaq_pocket.pdb
REMARK  226 active torsions:
REMARK  status: ('A' for Active; 'I' for Inactive)
REMARK    1  A    between atoms: _1  and  _3
REMARK    2  A    between atoms: _3  and  _4
REMARK    3  A    between atoms: _3  and  _6
REMARK    4  A    between atoms: _6  and  _7
REMARK    5  A    between atoms: _10  and  _12
REMARK    6  A    between atoms: _12  and  _13
REMARK    7  A    between atoms: _16  and  _18
REMARK    8  A    between atoms: _18  and  _19
REMARK    9  A    between atoms: _21  and  _23
REMARK   10  A    between atoms: _23  and  _24
REMARK   11  A    between atoms: _23  and  _26
REMARK   12  A    between atoms: _26  and  _27
REMARK   13  A    between atoms: _29  and  _31
REMARK   14  A    between atoms: _31  and  _32
REMARK   15  A    between atoms: _31  and  _34
REMARK   16  A    between atoms: _34  and  _35
REMARK   17  A    between atoms: _38  and  _40
REMARK   18  A    between atoms: _40  and  _41
REMARK   19  A    between atoms: _43  and  _45
REMARK   20  A    between atoms: _45  and  _46
REMARK   21  A    between atoms: _45  and  _48
REMARK   22  A    between atoms: _48  and  _49
REMARK   23  A    between atoms: _51  and  _53
REMARK   24  A    between atoms: _53  and  _54
REMARK   25  A    between atoms: _53  and  _56
REMARK   26  A    between atoms: _56  and  _57
REMARK   27  A    between atoms: _57  and  _58
REMARK   28  A    between atoms: _58  and  _59
REMARK   29  A    between atoms: _68  and  _70
REMARK   30  A    between atoms: _70  and  _71
REMARK   31  A    between atoms: _70  and  _73
REMARK   32  A    between atoms: _73  and  _74
REMARK   33  A    between atoms: _74  and  _75
REMARK   34  A    between atoms: _75  and  _76
REMARK   35  A    between atoms: _76  and  _77
REMARK   36  A    between atoms: _81  and  _83
REMARK   37  A    between atoms: _83  and  _84
REMARK   38  A    between atoms: _83  and  _86
REMARK   39  A    between atoms: _86  and  _87
REMARK   40  A    between atoms: _90  and  _92
REMARK   41  A    between atoms: _92  and  _93
REMARK   42  A    between atoms: _92  and  _95
REMARK   43  A    between atoms: _95  and  _96
REMARK   44  A    between atoms: _96  and  _97
REMARK   45  A    between atoms: _97  and  _98
REMARK   46  A    between atoms: _98  and  _99
REMARK   47  A    between atoms: _104  and  _105
REMARK   48  A    between atoms: _110  and  _112
REMARK   49  A    between atoms: _112  and  _113
REMARK   50  A    between atoms: _115  and  _117
REMARK   51  A    between atoms: _117  and  _118
REMARK   52  A    between atoms: _117  and  _120
REMARK   53  A    between atoms: _120  and  _121
REMARK   54  A    between atoms: _127  and  _129
REMARK   55  A    between atoms: _129  and  _130
REMARK   56  A    between atoms: _129  and  _132
REMARK   57  A    between atoms: _132  and  _133
REMARK   58  A    between atoms: _136  and  _138
REMARK   59  A    between atoms: _138  and  _139
REMARK   60  A    between atoms: _142  and  _144
REMARK   61  A    between atoms: _144  and  _145
REMARK   62  A    between atoms: _147  and  _149
REMARK   63  A    between atoms: _149  and  _150
REMARK   64  A    between atoms: _149  and  _152
REMARK   65  A    between atoms: _152  and  _153
REMARK   66  A    between atoms: _153  and  _154
REMARK   67  A    between atoms: _156  and  _158
REMARK   68  A    between atoms: _158  and  _159
REMARK   69  A    between atoms: _158  and  _161
REMARK   70  A    between atoms: _161  and  _162
REMARK   71  A    between atoms: _162  and  _163
REMARK   72  A    between atoms: _163  and  _164
REMARK   73  A    between atoms: _173  and  _175
REMARK   74  A    between atoms: _175  and  _176
REMARK   75  A    between atoms: _175  and  _178
REMARK   76  A    between atoms: _178  and  _179
REMARK   77  A    between atoms: _179  and  _180
REMARK   78  A    between atoms: _183  and  _185
REMARK   79  A    between atoms: _185  and  _186
REMARK   80  A    between atoms: _185  and  _188
REMARK   81  A    between atoms: _188  and  _189
REMARK   82  A    between atoms: _192  and  _194
REMARK   83  A    between atoms: _194  and  _195
REMARK   84  A    between atoms: _194  and  _197
REMARK   85  A    between atoms: _197  and  _198
REMARK   86  A    between atoms: _198  and  _199
REMARK   87  A    between atoms: _201  and  _203
REMARK   88  A    between atoms: _203  and  _204
REMARK   89  A    between atoms: _206  and  _208
REMARK   90  A    between atoms: _208  and  _209
REMARK   91  A    between atoms: _211  and  _213
REMARK   92  A    between atoms: _213  and  _214
REMARK   93  A    between atoms: _217  and  _219
REMARK   94  A    between atoms: _219  and  _220
REMARK   95  A    between atoms: _219  and  _222
REMARK   96  A    between atoms: _222  and  _223
REMARK   97  A    between atoms: _225  and  _227
REMARK   98  A    between atoms: _227  and  _228
REMARK   99  A    between atoms: _227  and  _230
REMARK  100  A    between atoms: _233  and  _235
REMARK  101  A    between atoms: _235  and  _236
REMARK  102  A    between atoms: _235  and  _238
REMARK  103  A    between atoms: _238  and  _239
REMARK  104  A    between atoms: _239  and  _240
REMARK  105  A    between atoms: _245  and  _247
REMARK  106  A    between atoms: _247  and  _248
REMARK  107  A    between atoms: _250  and  _252
REMARK  108  A    between atoms: _252  and  _253
REMARK  109  A    between atoms: _252  and  _255
REMARK  110  A    between atoms: _255  and  _256
REMARK  111  A    between atoms: _256  and  _257
REMARK  112  A    between atoms: _262  and  _264
REMARK  113  A    between atoms: _264  and  _265
REMARK  114  A    between atoms: _264  and  _267
REMARK  115  A    between atoms: _267  and  _268
REMARK  116  A    between atoms: _271  and  _273
REMARK  117  A    between atoms: _273  and  _274
REMARK  118  A    between atoms: _273  and  _276
REMARK  119  A    between atoms: _276  and  _277
REMARK  120  A    between atoms: _277  and  _278
REMARK  121  A    between atoms: _281  and  _283
REMARK  122  A    between atoms: _283  and  _284
REMARK  123  A    between atoms: _283  and  _286
REMARK  124  A    between atoms: _286  and  _287
REMARK  125  A    between atoms: _289  and  _291
REMARK  126  A    between atoms: _291  and  _292
REMARK  127  A    between atoms: _291  and  _294
REMARK  128  A    between atoms: _294  and  _295
REMARK  129  A    between atoms: _298  and  _300
REMARK  130  A    between atoms: _300  and  _301
REMARK  131  A    between atoms: _303  and  _305
REMARK  132  A    between atoms: _305  and  _306
REMARK  133  A    between atoms: _308  and  _310
REMARK  134  A    between atoms: _310  and  _311
REMARK  135  A    between atoms: _310  and  _313
REMARK  136  A    between atoms: _313  and  _314
REMARK  137  A    between atoms: _317  and  _319
REMARK  138  A    between atoms: _319  and  _320
REMARK  139  A    between atoms: _319  and  _322
REMARK  140  A    between atoms: _322  and  _323
REMARK  141  A    between atoms: _325  and  _327
REMARK  142  A    between atoms: _327  and  _328
REMARK  143  A    between atoms: _327  and  _330
REMARK  144  A    between atoms: _330  and  _331
REMARK  145  A    between atoms: _336  and  _338
REMARK  146  A    between atoms: _338  and  _339
REMARK  147  A    between atoms: _338  and  _341
REMARK  148  A    between atoms: _341  and  _342
REMARK  149  A    between atoms: _345  and  _347
REMARK  150  A    between atoms: _347  and  _348
REMARK  151  A    between atoms: _351  and  _353
REMARK  152  A    between atoms: _353  and  _354
REMARK  153  A    between atoms: _353  and  _356
REMARK  154  A    between atoms: _356  and  _357
REMARK  155  A    between atoms: _359  and  _361
REMARK  156  A    between atoms: _361  and  _362
REMARK  157  A    between atoms: _361  and  _364
REMARK  158  A    between atoms: _364  and  _365
REMARK  159  A    between atoms: _367  and  _369
REMARK  160  A    between atoms: _369  and  _370
REMARK  161  A    between atoms: _369  and  _372
REMARK  162  A    between atoms: _372  and  _373
REMARK  163  A    between atoms: _373  and  _374
REMARK  164  A    between atoms: _379  and  _381
REMARK  165  A    between atoms: _381  and  _382
REMARK  166  A    between atoms: _381  and  _384
REMARK  167  A    between atoms: _384  and  _385
REMARK  168  A    between atoms: _388  and  _390
REMARK  169  A    between atoms: _390  and  _391
REMARK  170  A    between atoms: _390  and  _393
REMARK  171  A    between atoms: _393  and  _394
REMARK  172  A    between atoms: _400  and  _402
REMARK  173  A    between atoms: _402  and  _403
REMARK  174  A    between atoms: _402  and  _405
REMARK  175  A    between atoms: _405  and  _406
REMARK  176  A    between atoms: _409  and  _411
REMARK  177  A    between atoms: _411  and  _412
REMARK  178  A    between atoms: _411  and  _414
REMARK  179  A    between atoms: _414  and  _415
REMARK  180  A    between atoms: _418  and  _420
REMARK  181  A    between atoms: _420  and  _421
REMARK  182  A    between atoms: _420  and  _423
REMARK  183  A    between atoms: _423  and  _424
REMARK  184  A    between atoms: _424  and  _425
REMARK  185  A    between atoms: _428  and  _430
REMARK  186  A    between atoms: _430  and  _431
REMARK  187  A    between atoms: _430  and  _433
REMARK  188  A    between atoms: _433  and  _434
REMARK  189  A    between atoms: _439  and  _440
REMARK  190  A    between atoms: _442  and  _444
REMARK  191  A    between atoms: _444  and  _445
REMARK  192  A    between atoms: _444  and  _447
REMARK  193  A    between atoms: _447  and  _448
REMARK  194  A    between atoms: _451  and  _453
REMARK  195  A    between atoms: _453  and  _454
REMARK  196  A    between atoms: _453  and  _456
REMARK  197  A    between atoms: _456  and  _457
REMARK  198  A    between atoms: _457  and  _458
REMARK  199  A    between atoms: _463  and  _465
REMARK  200  A    between atoms: _465  and  _466
REMARK  201  A    between atoms: _465  and  _468
REMARK  202  A    between atoms: _468  and  _469
REMARK  203  A    between atoms: _474  and  _475
REMARK  204  A    between atoms: _477  and  _479
REMARK  205  A    between atoms: _479  and  _480
REMARK  206  A    between atoms: _479  and  _482
REMARK  207  A    between atoms: _482  and  _483
REMARK  208  A    between atoms: _486  and  _488
REMARK  209  A    between atoms: _488  and  _489
REMARK  210  A    between atoms: _488  and  _491
REMARK  211  A    between atoms: _491  and  _492
REMARK  212  A    between atoms: _497  and  _498
REMARK  213  A    between atoms: _500  and  _502
REMARK  214  A    between atoms: _502  and  _503
REMARK  215  A    between atoms: _502  and  _505
REMARK  216  A    between atoms: _505  and  _506
REMARK  217  A    between atoms: _511  and  _512
REMARK  218  A    between atoms: _515  and  _516
REMARK  219  A    between atoms: _521  and  _523
REMARK  220  A    between atoms: _523  and  _524
REMARK  221  A    between atoms: _523  and  _526
REMARK  222  A    between atoms: _526  and  _527
REMARK  223  A    between atoms: _530  and  _532
REMARK  224  A    between atoms: _532  and  _533
REMARK  225  A    between atoms: _532  and  _535
REMARK  226  A    between atoms: _535  and  _536
REMARK                            x       y       z     vdW  Elec       q    Type
REMARK                         _______ _______ _______ _____ _____    ______ ____
ROOT
ATOM      1  O   HOH     1      33.433  36.628  25.561  0.00  0.00    +0.000 OA
ENDROOT
TORSDOF 0
REMARK  Name = ../refined-set-2016/3aaq/3aaq_pocket.pdb
REMARK  226 active torsions:
REMARK  status: ('A' for Active; 'I' for Inactive)
REMARK    1  A    between atoms: _1  and  _3
REMARK    2  A    between atoms: _3  and  _4
REMARK    3  A    between atoms: _3  and  _6
REMARK    4  A    between atoms: _6  and  _7
REMARK    5  A    between atoms: _10  and  _12
REMARK    6  A    between atoms: _12  and  _13
REMARK    7  A    between atoms: _16  and  _18
REMARK    8  A    between atoms: _18  and  _19
REMARK    9  A    between atoms: _21  and  _23
REMARK   10  A    between atoms: _23  and  _24
REMARK   11  A    between atoms: _23  and  _26
REMARK   12  A    between atoms: _26  and  _27
REMARK   13  A    between atoms: _29  and  _31
REMARK   14  A    between atoms: _31  and  _32
REMARK   15  A    between atoms: _31  and  _34
REMARK   16  A    between atoms: _34  and  _35
REMARK   17  A    between atoms: _38  and  _40
REMARK   18  A    between atoms: _40  and  _41
REMARK   19  A    between atoms: _43  and  _45
REMARK   20  A    between atoms: _45  and  _46
REMARK   21  A    between atoms: _45  and  _48
REMARK   22  A    between atoms: _48  and  _49
REMARK   23  A    between atoms: _51  and  _53
REMARK   24  A    between atoms: _53  and  _54
REMARK   25  A    between atoms: _53  and  _56
REMARK   26  A    between atoms: _56  and  _57
REMARK   27  A    between atoms: _57  and  _58
REMARK   28  A    between atoms: _58  and  _59
REMARK   29  A    between atoms: _68  and  _70
REMARK   30  A    between atoms: _70  and  _71
REMARK   31  A    between atoms: _70  and  _73
REMARK   32  A    between atoms: _73  and  _74
REMARK   33  A    between atoms: _74  and  _75
REMARK   34  A    between atoms: _75  and  _76
REMARK   35  A    between atoms: _76  and  _77
REMARK   36  A    between atoms: _81  and  _83
REMARK   37  A    between atoms: _83  and  _84
REMARK   38  A    between atoms: _83  and  _86
REMARK   39  A    between atoms: _86  and  _87
REMARK   40  A    between atoms: _90  and  _92
REMARK   41  A    between atoms: _92  and  _93
REMARK   42  A    between atoms: _92  and  _95
REMARK   43  A    between atoms: _95  and  _96
REMARK   44  A    between atoms: _96  and  _97
REMARK   45  A    between atoms: _97  and  _98
REMARK   46  A    between atoms: _98  and  _99
REMARK   47  A    between atoms: _104  and  _105
REMARK   48  A    between atoms: _110  and  _112
REMARK   49  A    between atoms: _112  and  _113
REMARK   50  A    between atoms: _115  and  _117
REMARK   51  A    between atoms: _117  and  _118
REMARK   52  A    between atoms: _117  and  _120
REMARK   53  A    between atoms: _120  and  _121
REMARK   54  A    between atoms: _127  and  _129
REMARK   55  A    between atoms: _129  and  _130
REMARK   56  A    between atoms: _129  and  _132
REMARK   57  A    between atoms: _132  and  _133
REMARK   58  A    between atoms: _136  and  _138
REMARK   59  A    between atoms: _138  and  _139
REMARK   60  A    between atoms: _142  and  _144
REMARK   61  A    between atoms: _144  and  _145
REMARK   62  A    between atoms: _147  and  _149
REMARK   63  A    between atoms: _149  and  _150
REMARK   64  A    between atoms: _149  and  _152
REMARK   65  A    between atoms: _152  and  _153
REMARK   66  A    between atoms: _153  and  _154
REMARK   67  A    between atoms: _156  and  _158
REMARK   68  A    between atoms: _158  and  _159
REMARK   69  A    between atoms: _158  and  _161
REMARK   70  A    between atoms: _161  and  _162
REMARK   71  A    between atoms: _162  and  _163
REMARK   72  A    between atoms: _163  and  _164
REMARK   73  A    between atoms: _173  and  _175
REMARK   74  A    between atoms: _175  and  _176
REMARK   75  A    between atoms: _175  and  _178
REMARK   76  A    between atoms: _178  and  _179
REMARK   77  A    between atoms: _179  and  _180
REMARK   78  A    between atoms: _183  and  _185
REMARK   79  A    between atoms: _185  and  _186
REMARK   80  A    between atoms: _185  and  _188
REMARK   81  A    between atoms: _188  and  _189
REMARK   82  A    between atoms: _192  and  _194
REMARK   83  A    between atoms: _194  and  _195
REMARK   84  A    between atoms: _194  and  _197
REMARK   85  A    between atoms: _197  and  _198
REMARK   86  A    between atoms: _198  and  _199
REMARK   87  A    between atoms: _201  and  _203
REMARK   88  A    between atoms: _203  and  _204
REMARK   89  A    between atoms: _206  and  _208
REMARK   90  A    between atoms: _208  and  _209
REMARK   91  A    between atoms: _211  and  _213
REMARK   92  A    between atoms: _213  and  _214
REMARK   93  A    between atoms: _217  and  _219
REMARK   94  A    between atoms: _219  and  _220
REMARK   95  A    between atoms: _219  and  _222
REMARK   96  A    between atoms: _222  and  _223
REMARK   97  A    between atoms: _225  and  _227
REMARK   98  A    between atoms: _227  and  _228
REMARK   99  A    between atoms: _227  and  _230
REMARK  100  A    between atoms: _233  and  _235
REMARK  101  A    between atoms: _235  and  _236
REMARK  102  A    between atoms: _235  and  _238
REMARK  103  A    between atoms: _238  and  _239
REMARK  104  A    between atoms: _239  and  _240
REMARK  105  A    between atoms: _245  and  _247
REMARK  106  A    between atoms: _247  and  _248
REMARK  107  A    between atoms: _250  and  _252
REMARK  108  A    between atoms: _252  and  _253
REMARK  109  A    between atoms: _252  and  _255
REMARK  110  A    between atoms: _255  and  _256
REMARK  111  A    between atoms: _256  and  _257
REMARK  112  A    between atoms: _262  and  _264
REMARK  113  A    between atoms: _264  and  _265
REMARK  114  A    between atoms: _264  and  _267
REMARK  115  A    between atoms: _267  and  _268
REMARK  116  A    between atoms: _271  and  _273
REMARK  117  A    between atoms: _273  and  _274
REMARK  118  A    between atoms: _273  and  _276
REMARK  119  A    between atoms: _276  and  _277
REMARK  120  A    between atoms: _277  and  _278
REMARK  121  A    between atoms: _281  and  _283
REMARK  122  A    between atoms: _283  and  _284
REMARK  123  A    between atoms: _283  and  _286
REMARK  124  A    between atoms: _286  and  _287
REMARK  125  A    between atoms: _289  and  _291
REMARK  126  A    between atoms: _291  and  _292
REMARK  127  A    between atoms: _291  and  _294
REMARK  128  A    between atoms: _294  and  _295
REMARK  129  A    between atoms: _298  and  _300
REMARK  130  A    between atoms: _300  and  _301
REMARK  131  A    between atoms: _303  and  _305
REMARK  132  A    between atoms: _305  and  _306
REMARK  133  A    between atoms: _308  and  _310
REMARK  134  A    between atoms: _310  and  _311
REMARK  135  A    between atoms: _310  and  _313
REMARK  136  A    between atoms: _313  and  _314
REMARK  137  A    between atoms: _317  and  _319
REMARK  138  A    between atoms: _319  and  _320
REMARK  139  A    between atoms: _319  and  _322
REMARK  140  A    between atoms: _322  and  _323
REMARK  141  A    between atoms: _325  and  _327
REMARK  142  A    between atoms: _327  and  _328
REMARK  143  A    between atoms: _327  and  _330
REMARK  144  A    between atoms: _330  and  _331
REMARK  145  A    between atoms: _336  and  _338
REMARK  146  A    between atoms: _338  and  _339
REMARK  147  A    between atoms: _338  and  _341
REMARK  148  A    between atoms: _341  and  _342
REMARK  149  A    between atoms: _345  and  _347
REMARK  150  A    between atoms: _347  and  _348
REMARK  151  A    between atoms: _351  and  _353
REMARK  152  A    between atoms: _353  and  _354
REMARK  153  A    between atoms: _353  and  _356
REMARK  154  A    between atoms: _356  and  _357
REMARK  155  A    between atoms: _359  and  _361
REMARK  156  A    between atoms: _361  and  _362
REMARK  157  A    between atoms: _361  and  _364
REMARK  158  A    between atoms: _364  and  _365
REMARK  159  A    between atoms: _367  and  _369
REMARK  160  A    between atoms: _369  and  _370
REMARK  161  A    between atoms: _369  and  _372
REMARK  162  A    between atoms: _372  and  _373
REMARK  163  A    between atoms: _373  and  _374
REMARK  164  A    between atoms: _379  and  _381
REMARK  165  A    between atoms: _381  and  _382
REMARK  166  A    between atoms: _381  and  _384
REMARK  167  A    between atoms: _384  and  _385
REMARK  168  A    between atoms: _388  and  _390
REMARK  169  A    between atoms: _390  and  _391
REMARK  170  A    between atoms: _390  and  _393
REMARK  171  A    between atoms: _393  and  _394
REMARK  172  A    between atoms: _400  and  _402
REMARK  173  A    between atoms: _402  and  _403
REMARK  174  A    between atoms: _402  and  _405
REMARK  175  A    between atoms: _405  and  _406
REMARK  176  A    between atoms: _409  and  _411
REMARK  177  A    between atoms: _411  and  _412
REMARK  178  A    between atoms: _411  and  _414
REMARK  179  A    between atoms: _414  and  _415
REMARK  180  A    between atoms: _418  and  _420
REMARK  181  A    between atoms: _420  and  _421
REMARK  182  A    between atoms: _420  and  _423
REMARK  183  A    between atoms: _423  and  _424
REMARK  184  A    between atoms: _424  and  _425
REMARK  185  A    between atoms: _428  and  _430
REMARK  186  A    between atoms: _430  and  _431
REMARK  187  A    between atoms: _430  and  _433
REMARK  188  A    between atoms: _433  and  _434
REMARK  189  A    between atoms: _439  and  _440
REMARK  190  A    between atoms: _442  and  _444
REMARK  191  A    between atoms: _444  and  _445
REMARK  192  A    between atoms: _444  and  _447
REMARK  193  A    between atoms: _447  and  _448
REMARK  194  A    between atoms: _451  and  _453
REMARK  195  A    between atoms: _453  and  _454
REMARK  196  A    between atoms: _453  and  _456
REMARK  197  A    between atoms: _456  and  _457
REMARK  198  A    between atoms: _457  and  _458
REMARK  199  A    between atoms: _463  and  _465
REMARK  200  A    between atoms: _465  and  _466
REMARK  201  A    between atoms: _465  and  _468
REMARK  202  A    between atoms: _468  and  _469
REMARK  203  A    between atoms: _474  and  _475
REMARK  204  A    between atoms: _477  and  _479
REMARK  205  A    between atoms: _479  and  _480
REMARK  206  A    between atoms: _479  and  _482
REMARK  207  A    between atoms: _482  and  _483
REMARK  208  A    between atoms: _486  and  _488
REMARK  209  A    between atoms: _488  and  _489
REMARK  210  A    between atoms: _488  and  _491
REMARK  211  A    between atoms: _491  and  _492
REMARK  212  A    between atoms: _497  and  _498
REMARK  213  A    between atoms: _500  and  _502
REMARK  214  A    between atoms: _502  and  _503
REMARK  215  A    between atoms: _502  and  _505
REMARK  216  A    between atoms: _505  and  _506
REMARK  217  A    between atoms: _511  and  _512
REMARK  218  A    between atoms: _515  and  _516
REMARK  219  A    between atoms: _521  and  _523
REMARK  220  A    between atoms: _523  and  _524
REMARK  221  A    between atoms: _523  and  _526
REMARK  222  A    between atoms: _526  and  _527
REMARK  223  A    between atoms: _530  and  _532
REMARK  224  A    between atoms: _532  and  _533
REMARK  225  A    between atoms: _532  and  _535
REMARK  226  A    between atoms: _535  and  _536
REMARK                            x       y       z     vdW  Elec       q    Type
REMARK                         _______ _______ _______ _____ _____    ______ ____
ROOT
ATOM      1  O   HOH     1      26.866  30.647  24.104  0.00  0.00    +0.000 OA
ENDROOT
TORSDOF 0
REMARK  Name = ../refined-set-2016/3aaq/3aaq_pocket.pdb
REMARK  226 active torsions:
REMARK  status: ('A' for Active; 'I' for Inactive)
REMARK    1  A    between atoms: _1  and  _3
REMARK    2  A    between atoms: _3  and  _4
REMARK    3  A    between atoms: _3  and  _6
REMARK    4  A    between atoms: _6  and  _7
REMARK    5  A    between atoms: _10  and  _12
REMARK    6  A    between atoms: _12  and  _13
REMARK    7  A    between atoms: _16  and  _18
REMARK    8  A    between atoms: _18  and  _19
REMARK    9  A    between atoms: _21  and  _23
REMARK   10  A    between atoms: _23  and  _24
REMARK   11  A    between atoms: _23  and  _26
REMARK   12  A    between atoms: _26  and  _27
REMARK   13  A    between atoms: _29  and  _31
REMARK   14  A    between atoms: _31  and  _32
REMARK   15  A    between atoms: _31  and  _34
REMARK   16  A    between atoms: _34  and  _35
REMARK   17  A    between atoms: _38  and  _40
REMARK   18  A    between atoms: _40  and  _41
REMARK   19  A    between atoms: _43  and  _45
REMARK   20  A    between atoms: _45  and  _46
REMARK   21  A    between atoms: _45  and  _48
REMARK   22  A    between atoms: _48  and  _49
REMARK   23  A    between atoms: _51  and  _53
REMARK   24  A    between atoms: _53  and  _54
REMARK   25  A    between atoms: _53  and  _56
REMARK   26  A    between atoms: _56  and  _57
REMARK   27  A    between atoms: _57  and  _58
REMARK   28  A    between atoms: _58  and  _59
REMARK   29  A    between atoms: _68  and  _70
REMARK   30  A    between atoms: _70  and  _71
REMARK   31  A    between atoms: _70  and  _73
REMARK   32  A    between atoms: _73  and  _74
REMARK   33  A    between atoms: _74  and  _75
REMARK   34  A    between atoms: _75  and  _76
REMARK   35  A    between atoms: _76  and  _77
REMARK   36  A    between atoms: _81  and  _83
REMARK   37  A    between atoms: _83  and  _84
REMARK   38  A    between atoms: _83  and  _86
REMARK   39  A    between atoms: _86  and  _87
REMARK   40  A    between atoms: _90  and  _92
REMARK   41  A    between atoms: _92  and  _93
REMARK   42  A    between atoms: _92  and  _95
REMARK   43  A    between atoms: _95  and  _96
REMARK   44  A    between atoms: _96  and  _97
REMARK   45  A    between atoms: _97  and  _98
REMARK   46  A    between atoms: _98  and  _99
REMARK   47  A    between atoms: _104  and  _105
REMARK   48  A    between atoms: _110  and  _112
REMARK   49  A    between atoms: _112  and  _113
REMARK   50  A    between atoms: _115  and  _117
REMARK   51  A    between atoms: _117  and  _118
REMARK   52  A    between atoms: _117  and  _120
REMARK   53  A    between atoms: _120  and  _121
REMARK   54  A    between atoms: _127  and  _129
REMARK   55  A    between atoms: _129  and  _130
REMARK   56  A    between atoms: _129  and  _132
REMARK   57  A    between atoms: _132  and  _133
REMARK   58  A    between atoms: _136  and  _138
REMARK   59  A    between atoms: _138  and  _139
REMARK   60  A    between atoms: _142  and  _144
REMARK   61  A    between atoms: _144  and  _145
REMARK   62  A    between atoms: _147  and  _149
REMARK   63  A    between atoms: _149  and  _150
REMARK   64  A    between atoms: _149  and  _152
REMARK   65  A    between atoms: _152  and  _153
REMARK   66  A    between atoms: _153  and  _154
REMARK   67  A    between atoms: _156  and  _158
REMARK   68  A    between atoms: _158  and  _159
REMARK   69  A    between atoms: _158  and  _161
REMARK   70  A    between atoms: _161  and  _162
REMARK   71  A    between atoms: _162  and  _163
REMARK   72  A    between atoms: _163  and  _164
REMARK   73  A    between atoms: _173  and  _175
REMARK   74  A    between atoms: _175  and  _176
REMARK   75  A    between atoms: _175  and  _178
REMARK   76  A    between atoms: _178  and  _179
REMARK   77  A    between atoms: _179  and  _180
REMARK   78  A    between atoms: _183  and  _185
REMARK   79  A    between atoms: _185  and  _186
REMARK   80  A    between atoms: _185  and  _188
REMARK   81  A    between atoms: _188  and  _189
REMARK   82  A    between atoms: _192  and  _194
REMARK   83  A    between atoms: _194  and  _195
REMARK   84  A    between atoms: _194  and  _197
REMARK   85  A    between atoms: _197  and  _198
REMARK   86  A    between atoms: _198  and  _199
REMARK   87  A    between atoms: _201  and  _203
REMARK   88  A    between atoms: _203  and  _204
REMARK   89  A    between atoms: _206  and  _208
REMARK   90  A    between atoms: _208  and  _209
REMARK   91  A    between atoms: _211  and  _213
REMARK   92  A    between atoms: _213  and  _214
REMARK   93  A    between atoms: _217  and  _219
REMARK   94  A    between atoms: _219  and  _220
REMARK   95  A    between atoms: _219  and  _222
REMARK   96  A    between atoms: _222  and  _223
REMARK   97  A    between atoms: _225  and  _227
REMARK   98  A    between atoms: _227  and  _228
REMARK   99  A    between atoms: _227  and  _230
REMARK  100  A    between atoms: _233  and  _235
REMARK  101  A    between atoms: _235  and  _236
REMARK  102  A    between atoms: _235  and  _238
REMARK  103  A    between atoms: _238  and  _239
REMARK  104  A    between atoms: _239  and  _240
REMARK  105  A    between atoms: _245  and  _247
REMARK  106  A    between atoms: _247  and  _248
REMARK  107  A    between atoms: _250  and  _252
REMARK  108  A    between atoms: _252  and  _253
REMARK  109  A    between atoms: _252  and  _255
REMARK  110  A    between atoms: _255  and  _256
REMARK  111  A    between atoms: _256  and  _257
REMARK  112  A    between atoms: _262  and  _264
REMARK  113  A    between atoms: _264  and  _265
REMARK  114  A    between atoms: _264  and  _267
REMARK  115  A    between atoms: _267  and  _268
REMARK  116  A    between atoms: _271  and  _273
REMARK  117  A    between atoms: _273  and  _274
REMARK  118  A    between atoms: _273  and  _276
REMARK  119  A    between atoms: _276  and  _277
REMARK  120  A    between atoms: _277  and  _278
REMARK  121  A    between atoms: _281  and  _283
REMARK  122  A    between atoms: _283  and  _284
REMARK  123  A    between atoms: _283  and  _286
REMARK  124  A    between atoms: _286  and  _287
REMARK  125  A    between atoms: _289  and  _291
REMARK  126  A    between atoms: _291  and  _292
REMARK  127  A    between atoms: _291  and  _294
REMARK  128  A    between atoms: _294  and  _295
REMARK  129  A    between atoms: _298  and  _300
REMARK  130  A    between atoms: _300  and  _301
REMARK  131  A    between atoms: _303  and  _305
REMARK  132  A    between atoms: _305  and  _306
REMARK  133  A    between atoms: _308  and  _310
REMARK  134  A    between atoms: _310  and  _311
REMARK  135  A    between atoms: _310  and  _313
REMARK  136  A    between atoms: _313  and  _314
REMARK  137  A    between atoms: _317  and  _319
REMARK  138  A    between atoms: _319  and  _320
REMARK  139  A    between atoms: _319  and  _322
REMARK  140  A    between atoms: _322  and  _323
REMARK  141  A    between atoms: _325  and  _327
REMARK  142  A    between atoms: _327  and  _328
REMARK  143  A    between atoms: _327  and  _330
REMARK  144  A    between atoms: _330  and  _331
REMARK  145  A    between atoms: _336  and  _338
REMARK  146  A    between atoms: _338  and  _339
REMARK  147  A    between atoms: _338  and  _341
REMARK  148  A    between atoms: _341  and  _342
REMARK  149  A    between atoms: _345  and  _347
REMARK  150  A    between atoms: _347  and  _348
REMARK  151  A    between atoms: _351  and  _353
REMARK  152  A    between atoms: _353  and  _354
REMARK  153  A    between atoms: _353  and  _356
REMARK  154  A    between atoms: _356  and  _357
REMARK  155  A    between atoms: _359  and  _361
REMARK  156  A    between atoms: _361  and  _362
REMARK  157  A    between atoms: _361  and  _364
REMARK  158  A    between atoms: _364  and  _365
REMARK  159  A    between atoms: _367  and  _369
REMARK  160  A    between atoms: _369  and  _370
REMARK  161  A    between atoms: _369  and  _372
REMARK  162  A    between atoms: _372  and  _373
REMARK  163  A    between atoms: _373  and  _374
REMARK  164  A    between atoms: _379  and  _381
REMARK  165  A    between atoms: _381  and  _382
REMARK  166  A    between atoms: _381  and  _384
REMARK  167  A    between atoms: _384  and  _385
REMARK  168  A    between atoms: _388  and  _390
REMARK  169  A    between atoms: _390  and  _391
REMARK  170  A    between atoms: _390  and  _393
REMARK  171  A    between atoms: _393  and  _394
REMARK  172  A    between atoms: _400  and  _402
REMARK  173  A    between atoms: _402  and  _403
REMARK  174  A    between atoms: _402  and  _405
REMARK  175  A    between atoms: _405  and  _406
REMARK  176  A    between atoms: _409  and  _411
REMARK  177  A    between atoms: _411  and  _412
REMARK  178  A    between atoms: _411  and  _414
REMARK  179  A    between atoms: _414  and  _415
REMARK  180  A    between atoms: _418  and  _420
REMARK  181  A    between atoms: _420  and  _421
REMARK  182  A    between atoms: _420  and  _423
REMARK  183  A    between atoms: _423  and  _424
REMARK  184  A    between atoms: _424  and  _425
REMARK  185  A    between atoms: _428  and  _430
REMARK  186  A    between atoms: _430  and  _431
REMARK  187  A    between atoms: _430  and  _433
REMARK  188  A    between atoms: _433  and  _434
REMARK  189  A    between atoms: _439  and  _440
REMARK  190  A    between atoms: _442  and  _444
REMARK  191  A    between atoms: _444  and  _445
REMARK  192  A    between atoms: _444  and  _447
REMARK  193  A    between atoms: _447  and  _448
REMARK  194  A    between atoms: _451  and  _453
REMARK  195  A    between atoms: _453  and  _454
REMARK  196  A    between atoms: _453  and  _456
REMARK  197  A    between atoms: _456  and  _457
REMARK  198  A    between atoms: _457  and  _458
REMARK  199  A    between atoms: _463  and  _465
REMARK  200  A    between atoms: _465  and  _466
REMARK  201  A    between atoms: _465  and  _468
REMARK  202  A    between atoms: _468  and  _469
REMARK  203  A    between atoms: _474  and  _475
REMARK  204  A    between atoms: _477  and  _479
REMARK  205  A    between atoms: _479  and  _480
REMARK  206  A    between atoms: _479  and  _482
REMARK  207  A    between atoms: _482  and  _483
REMARK  208  A    between atoms: _486  and  _488
REMARK  209  A    between atoms: _488  and  _489
REMARK  210  A    between atoms: _488  and  _491
REMARK  211  A    between atoms: _491  and  _492
REMARK  212  A    between atoms: _497  and  _498
REMARK  213  A    between atoms: _500  and  _502
REMARK  214  A    between atoms: _502  and  _503
REMARK  215  A    between atoms: _502  and  _505
REMARK  216  A    between atoms: _505  and  _506
REMARK  217  A    between atoms: _511  and  _512
REMARK  218  A    between atoms: _515  and  _516
REMARK  219  A    between atoms: _521  and  _523
REMARK  220  A    between atoms: _523  and  _524
REMARK  221  A    between atoms: _523  and  _526
REMARK  222  A    between atoms: _526  and  _527
REMARK  223  A    between atoms: _530  and  _532
REMARK  224  A    between atoms: _532  and  _533
REMARK  225  A    between atoms: _532  and  _535
REMARK  226  A    between atoms: _535  and  _536
REMARK                            x       y       z     vdW  Elec       q    Type
REMARK                         _______ _______ _______ _____ _____    ______ ____
ROOT
ATOM      1  O   HOH     1      39.633  29.371  35.451  0.00  0.00    +0.000 OA
ENDROOT
TORSDOF 0
REMARK  Name = ../refined-set-2016/3aaq/3aaq_pocket.pdb
REMARK  226 active torsions:
REMARK  status: ('A' for Active; 'I' for Inactive)
REMARK    1  A    between atoms: _1  and  _3
REMARK    2  A    between atoms: _3  and  _4
REMARK    3  A    between atoms: _3  and  _6
REMARK    4  A    between atoms: _6  and  _7
REMARK    5  A    between atoms: _10  and  _12
REMARK    6  A    between atoms: _12  and  _13
REMARK    7  A    between atoms: _16  and  _18
REMARK    8  A    between atoms: _18  and  _19
REMARK    9  A    between atoms: _21  and  _23
REMARK   10  A    between atoms: _23  and  _24
REMARK   11  A    between atoms: _23  and  _26
REMARK   12  A    between atoms: _26  and  _27
REMARK   13  A    between atoms: _29  and  _31
REMARK   14  A    between atoms: _31  and  _32
REMARK   15  A    between atoms: _31  and  _34
REMARK   16  A    between atoms: _34  and  _35
REMARK   17  A    between atoms: _38  and  _40
REMARK   18  A    between atoms: _40  and  _41
REMARK   19  A    between atoms: _43  and  _45
REMARK   20  A    between atoms: _45  and  _46
REMARK   21  A    between atoms: _45  and  _48
REMARK   22  A    between atoms: _48  and  _49
REMARK   23  A    between atoms: _51  and  _53
REMARK   24  A    between atoms: _53  and  _54
REMARK   25  A    between atoms: _53  and  _56
REMARK   26  A    between atoms: _56  and  _57
REMARK   27  A    between atoms: _57  and  _58
REMARK   28  A    between atoms: _58  and  _59
REMARK   29  A    between atoms: _68  and  _70
REMARK   30  A    between atoms: _70  and  _71
REMARK   31  A    between atoms: _70  and  _73
REMARK   32  A    between atoms: _73  and  _74
REMARK   33  A    between atoms: _74  and  _75
REMARK   34  A    between atoms: _75  and  _76
REMARK   35  A    between atoms: _76  and  _77
REMARK   36  A    between atoms: _81  and  _83
REMARK   37  A    between atoms: _83  and  _84
REMARK   38  A    between atoms: _83  and  _86
REMARK   39  A    between atoms: _86  and  _87
REMARK   40  A    between atoms: _90  and  _92
REMARK   41  A    between atoms: _92  and  _93
REMARK   42  A    between atoms: _92  and  _95
REMARK   43  A    between atoms: _95  and  _96
REMARK   44  A    between atoms: _96  and  _97
REMARK   45  A    between atoms: _97  and  _98
REMARK   46  A    between atoms: _98  and  _99
REMARK   47  A    between atoms: _104  and  _105
REMARK   48  A    between atoms: _110  and  _112
REMARK   49  A    between atoms: _112  and  _113
REMARK   50  A    between atoms: _115  and  _117
REMARK   51  A    between atoms: _117  and  _118
REMARK   52  A    between atoms: _117  and  _120
REMARK   53  A    between atoms: _120  and  _121
REMARK   54  A    between atoms: _127  and  _129
REMARK   55  A    between atoms: _129  and  _130
REMARK   56  A    between atoms: _129  and  _132
REMARK   57  A    between atoms: _132  and  _133
REMARK   58  A    between atoms: _136  and  _138
REMARK   59  A    between atoms: _138  and  _139
REMARK   60  A    between atoms: _142  and  _144
REMARK   61  A    between atoms: _144  and  _145
REMARK   62  A    between atoms: _147  and  _149
REMARK   63  A    between atoms: _149  and  _150
REMARK   64  A    between atoms: _149  and  _152
REMARK   65  A    between atoms: _152  and  _153
REMARK   66  A    between atoms: _153  and  _154
REMARK   67  A    between atoms: _156  and  _158
REMARK   68  A    between atoms: _158  and  _159
REMARK   69  A    between atoms: _158  and  _161
REMARK   70  A    between atoms: _161  and  _162
REMARK   71  A    between atoms: _162  and  _163
REMARK   72  A    between atoms: _163  and  _164
REMARK   73  A    between atoms: _173  and  _175
REMARK   74  A    between atoms: _175  and  _176
REMARK   75  A    between atoms: _175  and  _178
REMARK   76  A    between atoms: _178  and  _179
REMARK   77  A    between atoms: _179  and  _180
REMARK   78  A    between atoms: _183  and  _185
REMARK   79  A    between atoms: _185  and  _186
REMARK   80  A    between atoms: _185  and  _188
REMARK   81  A    between atoms: _188  and  _189
REMARK   82  A    between atoms: _192  and  _194
REMARK   83  A    between atoms: _194  and  _195
REMARK   84  A    between atoms: _194  and  _197
REMARK   85  A    between atoms: _197  and  _198
REMARK   86  A    between atoms: _198  and  _199
REMARK   87  A    between atoms: _201  and  _203
REMARK   88  A    between atoms: _203  and  _204
REMARK   89  A    between atoms: _206  and  _208
REMARK   90  A    between atoms: _208  and  _209
REMARK   91  A    between atoms: _211  and  _213
REMARK   92  A    between atoms: _213  and  _214
REMARK   93  A    between atoms: _217  and  _219
REMARK   94  A    between atoms: _219  and  _220
REMARK   95  A    between atoms: _219  and  _222
REMARK   96  A    between atoms: _222  and  _223
REMARK   97  A    between atoms: _225  and  _227
REMARK   98  A    between atoms: _227  and  _228
REMARK   99  A    between atoms: _227  and  _230
REMARK  100  A    between atoms: _233  and  _235
REMARK  101  A    between atoms: _235  and  _236
REMARK  102  A    between atoms: _235  and  _238
REMARK  103  A    between atoms: _238  and  _239
REMARK  104  A    between atoms: _239  and  _240
REMARK  105  A    between atoms: _245  and  _247
REMARK  106  A    between atoms: _247  and  _248
REMARK  107  A    between atoms: _250  and  _252
REMARK  108  A    between atoms: _252  and  _253
REMARK  109  A    between atoms: _252  and  _255
REMARK  110  A    between atoms: _255  and  _256
REMARK  111  A    between atoms: _256  and  _257
REMARK  112  A    between atoms: _262  and  _264
REMARK  113  A    between atoms: _264  and  _265
REMARK  114  A    between atoms: _264  and  _267
REMARK  115  A    between atoms: _267  and  _268
REMARK  116  A    between atoms: _271  and  _273
REMARK  117  A    between atoms: _273  and  _274
REMARK  118  A    between atoms: _273  and  _276
REMARK  119  A    between atoms: _276  and  _277
REMARK  120  A    between atoms: _277  and  _278
REMARK  121  A    between atoms: _281  and  _283
REMARK  122  A    between atoms: _283  and  _284
REMARK  123  A    between atoms: _283  and  _286
REMARK  124  A    between atoms: _286  and  _287
REMARK  125  A    between atoms: _289  and  _291
REMARK  126  A    between atoms: _291  and  _292
REMARK  127  A    between atoms: _291  and  _294
REMARK  128  A    between atoms: _294  and  _295
REMARK  129  A    between atoms: _298  and  _300
REMARK  130  A    between atoms: _300  and  _301
REMARK  131  A    between atoms: _303  and  _305
REMARK  132  A    between atoms: _305  and  _306
REMARK  133  A    between atoms: _308  and  _310
REMARK  134  A    between atoms: _310  and  _311
REMARK  135  A    between atoms: _310  and  _313
REMARK  136  A    between atoms: _313  and  _314
REMARK  137  A    between atoms: _317  and  _319
REMARK  138  A    between atoms: _319  and  _320
REMARK  139  A    between atoms: _319  and  _322
REMARK  140  A    between atoms: _322  and  _323
REMARK  141  A    between atoms: _325  and  _327
REMARK  142  A    between atoms: _327  and  _328
REMARK  143  A    between atoms: _327  and  _330
REMARK  144  A    between atoms: _330  and  _331
REMARK  145  A    between atoms: _336  and  _338
REMARK  146  A    between atoms: _338  and  _339
REMARK  147  A    between atoms: _338  and  _341
REMARK  148  A    between atoms: _341  and  _342
REMARK  149  A    between atoms: _345  and  _347
REMARK  150  A    between atoms: _347  and  _348
REMARK  151  A    between atoms: _351  and  _353
REMARK  152  A    between atoms: _353  and  _354
REMARK  153  A    between atoms: _353  and  _356
REMARK  154  A    between atoms: _356  and  _357
REMARK  155  A    between atoms: _359  and  _361
REMARK  156  A    between atoms: _361  and  _362
REMARK  157  A    between atoms: _361  and  _364
REMARK  158  A    between atoms: _364  and  _365
REMARK  159  A    between atoms: _367  and  _369
REMARK  160  A    between atoms: _369  and  _370
REMARK  161  A    between atoms: _369  and  _372
REMARK  162  A    between atoms: _372  and  _373
REMARK  163  A    between atoms: _373  and  _374
REMARK  164  A    between atoms: _379  and  _381
REMARK  165  A    between atoms: _381  and  _382
REMARK  166  A    between atoms: _381  and  _384
REMARK  167  A    between atoms: _384  and  _385
REMARK  168  A    between atoms: _388  and  _390
REMARK  169  A    between atoms: _390  and  _391
REMARK  170  A    between atoms: _390  and  _393
REMARK  171  A    between atoms: _393  and  _394
REMARK  172  A    between atoms: _400  and  _402
REMARK  173  A    between atoms: _402  and  _403
REMARK  174  A    between atoms: _402  and  _405
REMARK  175  A    between atoms: _405  and  _406
REMARK  176  A    between atoms: _409  and  _411
REMARK  177  A    between atoms: _411  and  _412
REMARK  178  A    between atoms: _411  and  _414
REMARK  179  A    between atoms: _414  and  _415
REMARK  180  A    between atoms: _418  and  _420
REMARK  181  A    between atoms: _420  and  _421
REMARK  182  A    between atoms: _420  and  _423
REMARK  183  A    between atoms: _423  and  _424
REMARK  184  A    between atoms: _424  and  _425
REMARK  185  A    between atoms: _428  and  _430
REMARK  186  A    between atoms: _430  and  _431
REMARK  187  A    between atoms: _430  and  _433
REMARK  188  A    between atoms: _433  and  _434
REMARK  189  A    between atoms: _439  and  _440
REMARK  190  A    between atoms: _442  and  _444
REMARK  191  A    between atoms: _444  and  _445
REMARK  192  A    between atoms: _444  and  _447
REMARK  193  A    between atoms: _447  and  _448
REMARK  194  A    between atoms: _451  and  _453
REMARK  195  A    between atoms: _453  and  _454
REMARK  196  A    between atoms: _453  and  _456
REMARK  197  A    between atoms: _456  and  _457
REMARK  198  A    between atoms: _457  and  _458
REMARK  199  A    between atoms: _463  and  _465
REMARK  200  A    between atoms: _465  and  _466
REMARK  201  A    between atoms: _465  and  _468
REMARK  202  A    between atoms: _468  and  _469
REMARK  203  A    between atoms: _474  and  _475
REMARK  204  A    between atoms: _477  and  _479
REMARK  205  A    between atoms: _479  and  _480
REMARK  206  A    between atoms: _479  and  _482
REMARK  207  A    between atoms: _482  and  _483
REMARK  208  A    between atoms: _486  and  _488
REMARK  209  A    between atoms: _488  and  _489
REMARK  210  A    between atoms: _488  and  _491
REMARK  211  A    between atoms: _491  and  _492
REMARK  212  A    between atoms: _497  and  _498
REMARK  213  A    between atoms: _500  and  _502
REMARK  214  A    between atoms: _502  and  _503
REMARK  215  A    between atoms: _502  and  _505
REMARK  216  A    between atoms: _505  and  _506
REMARK  217  A    between atoms: _511  and  _512
REMARK  218  A    between atoms: _515  and  _516
REMARK  219  A    between atoms: _521  and  _523
REMARK  220  A    between atoms: _523  and  _524
REMARK  221  A    between atoms: _523  and  _526
REMARK  222  A    between atoms: _526  and  _527
REMARK  223  A    between atoms: _530  and  _532
REMARK  224  A    between atoms: _532  and  _533
REMARK  225  A    between atoms: _532  and  _535
REMARK  226  A    between atoms: _535  and  _536
REMARK                            x       y       z     vdW  Elec       q    Type
REMARK                         _______ _______ _______ _____ _____    ______ ____
ROOT
ATOM      1  O   HOH     1      30.466  40.338  33.271  0.00  0.00    +0.000 OA
ENDROOT
TORSDOF 0
REMARK  Name = ../refined-set-2016/3aaq/3aaq_pocket.pdb
REMARK  226 active torsions:
REMARK  status: ('A' for Active; 'I' for Inactive)
REMARK    1  A    between atoms: _1  and  _3
REMARK    2  A    between atoms: _3  and  _4
REMARK    3  A    between atoms: _3  and  _6
REMARK    4  A    between atoms: _6  and  _7
REMARK    5  A    between atoms: _10  and  _12
REMARK    6  A    between atoms: _12  and  _13
REMARK    7  A    between atoms: _16  and  _18
REMARK    8  A    between atoms: _18  and  _19
REMARK    9  A    between atoms: _21  and  _23
REMARK   10  A    between atoms: _23  and  _24
REMARK   11  A    between atoms: _23  and  _26
REMARK   12  A    between atoms: _26  and  _27
REMARK   13  A    between atoms: _29  and  _31
REMARK   14  A    between atoms: _31  and  _32
REMARK   15  A    between atoms: _31  and  _34
REMARK   16  A    between atoms: _34  and  _35
REMARK   17  A    between atoms: _38  and  _40
REMARK   18  A    between atoms: _40  and  _41
REMARK   19  A    between atoms: _43  and  _45
REMARK   20  A    between atoms: _45  and  _46
REMARK   21  A    between atoms: _45  and  _48
REMARK   22  A    between atoms: _48  and  _49
REMARK   23  A    between atoms: _51  and  _53
REMARK   24  A    between atoms: _53  and  _54
REMARK   25  A    between atoms: _53  and  _56
REMARK   26  A    between atoms: _56  and  _57
REMARK   27  A    between atoms: _57  and  _58
REMARK   28  A    between atoms: _58  and  _59
REMARK   29  A    between atoms: _68  and  _70
REMARK   30  A    between atoms: _70  and  _71
REMARK   31  A    between atoms: _70  and  _73
REMARK   32  A    between atoms: _73  and  _74
REMARK   33  A    between atoms: _74  and  _75
REMARK   34  A    between atoms: _75  and  _76
REMARK   35  A    between atoms: _76  and  _77
REMARK   36  A    between atoms: _81  and  _83
REMARK   37  A    between atoms: _83  and  _84
REMARK   38  A    between atoms: _83  and  _86
REMARK   39  A    between atoms: _86  and  _87
REMARK   40  A    between atoms: _90  and  _92
REMARK   41  A    between atoms: _92  and  _93
REMARK   42  A    between atoms: _92  and  _95
REMARK   43  A    between atoms: _95  and  _96
REMARK   44  A    between atoms: _96  and  _97
REMARK   45  A    between atoms: _97  and  _98
REMARK   46  A    between atoms: _98  and  _99
REMARK   47  A    between atoms: _104  and  _105
REMARK   48  A    between atoms: _110  and  _112
REMARK   49  A    between atoms: _112  and  _113
REMARK   50  A    between atoms: _115  and  _117
REMARK   51  A    between atoms: _117  and  _118
REMARK   52  A    between atoms: _117  and  _120
REMARK   53  A    between atoms: _120  and  _121
REMARK   54  A    between atoms: _127  and  _129
REMARK   55  A    between atoms: _129  and  _130
REMARK   56  A    between atoms: _129  and  _132
REMARK   57  A    between atoms: _132  and  _133
REMARK   58  A    between atoms: _136  and  _138
REMARK   59  A    between atoms: _138  and  _139
REMARK   60  A    between atoms: _142  and  _144
REMARK   61  A    between atoms: _144  and  _145
REMARK   62  A    between atoms: _147  and  _149
REMARK   63  A    between atoms: _149  and  _150
REMARK   64  A    between atoms: _149  and  _152
REMARK   65  A    between atoms: _152  and  _153
REMARK   66  A    between atoms: _153  and  _154
REMARK   67  A    between atoms: _156  and  _158
REMARK   68  A    between atoms: _158  and  _159
REMARK   69  A    between atoms: _158  and  _161
REMARK   70  A    between atoms: _161  and  _162
REMARK   71  A    between atoms: _162  and  _163
REMARK   72  A    between atoms: _163  and  _164
REMARK   73  A    between atoms: _173  and  _175
REMARK   74  A    between atoms: _175  and  _176
REMARK   75  A    between atoms: _175  and  _178
REMARK   76  A    between atoms: _178  and  _179
REMARK   77  A    between atoms: _179  and  _180
REMARK   78  A    between atoms: _183  and  _185
REMARK   79  A    between atoms: _185  and  _186
REMARK   80  A    between atoms: _185  and  _188
REMARK   81  A    between atoms: _188  and  _189
REMARK   82  A    between atoms: _192  and  _194
REMARK   83  A    between atoms: _194  and  _195
REMARK   84  A    between atoms: _194  and  _197
REMARK   85  A    between atoms: _197  and  _198
REMARK   86  A    between atoms: _198  and  _199
REMARK   87  A    between atoms: _201  and  _203
REMARK   88  A    between atoms: _203  and  _204
REMARK   89  A    between atoms: _206  and  _208
REMARK   90  A    between atoms: _208  and  _209
REMARK   91  A    between atoms: _211  and  _213
REMARK   92  A    between atoms: _213  and  _214
REMARK   93  A    between atoms: _217  and  _219
REMARK   94  A    between atoms: _219  and  _220
REMARK   95  A    between atoms: _219  and  _222
REMARK   96  A    between atoms: _222  and  _223
REMARK   97  A    between atoms: _225  and  _227
REMARK   98  A    between atoms: _227  and  _228
REMARK   99  A    between atoms: _227  and  _230
REMARK  100  A    between atoms: _233  and  _235
REMARK  101  A    between atoms: _235  and  _236
REMARK  102  A    between atoms: _235  and  _238
REMARK  103  A    between atoms: _238  and  _239
REMARK  104  A    between atoms: _239  and  _240
REMARK  105  A    between atoms: _245  and  _247
REMARK  106  A    between atoms: _247  and  _248
REMARK  107  A    between atoms: _250  and  _252
REMARK  108  A    between atoms: _252  and  _253
REMARK  109  A    between atoms: _252  and  _255
REMARK  110  A    between atoms: _255  and  _256
REMARK  111  A    between atoms: _256  and  _257
REMARK  112  A    between atoms: _262  and  _264
REMARK  113  A    between atoms: _264  and  _265
REMARK  114  A    between atoms: _264  and  _267
REMARK  115  A    between atoms: _267  and  _268
REMARK  116  A    between atoms: _271  and  _273
REMARK  117  A    between atoms: _273  and  _274
REMARK  118  A    between atoms: _273  and  _276
REMARK  119  A    between atoms: _276  and  _277
REMARK  120  A    between atoms: _277  and  _278
REMARK  121  A    between atoms: _281  and  _283
REMARK  122  A    between atoms: _283  and  _284
REMARK  123  A    between atoms: _283  and  _286
REMARK  124  A    between atoms: _286  and  _287
REMARK  125  A    between atoms: _289  and  _291
REMARK  126  A    between atoms: _291  and  _292
REMARK  127  A    between atoms: _291  and  _294
REMARK  128  A    between atoms: _294  and  _295
REMARK  129  A    between atoms: _298  and  _300
REMARK  130  A    between atoms: _300  and  _301
REMARK  131  A    between atoms: _303  and  _305
REMARK  132  A    between atoms: _305  and  _306
REMARK  133  A    between atoms: _308  and  _310
REMARK  134  A    between atoms: _310  and  _311
REMARK  135  A    between atoms: _310  and  _313
REMARK  136  A    between atoms: _313  and  _314
REMARK  137  A    between atoms: _317  and  _319
REMARK  138  A    between atoms: _319  and  _320
REMARK  139  A    between atoms: _319  and  _322
REMARK  140  A    between atoms: _322  and  _323
REMARK  141  A    between atoms: _325  and  _327
REMARK  142  A    between atoms: _327  and  _328
REMARK  143  A    between atoms: _327  and  _330
REMARK  144  A    between atoms: _330  and  _331
REMARK  145  A    between atoms: _336  and  _338
REMARK  146  A    between atoms: _338  and  _339
REMARK  147  A    between atoms: _338  and  _341
REMARK  148  A    between atoms: _341  and  _342
REMARK  149  A    between atoms: _345  and  _347
REMARK  150  A    between atoms: _347  and  _348
REMARK  151  A    between atoms: _351  and  _353
REMARK  152  A    between atoms: _353  and  _354
REMARK  153  A    between atoms: _353  and  _356
REMARK  154  A    between atoms: _356  and  _357
REMARK  155  A    between atoms: _359  and  _361
REMARK  156  A    between atoms: _361  and  _362
REMARK  157  A    between atoms: _361  and  _364
REMARK  158  A    between atoms: _364  and  _365
REMARK  159  A    between atoms: _367  and  _369
REMARK  160  A    between atoms: _369  and  _370
REMARK  161  A    between atoms: _369  and  _372
REMARK  162  A    between atoms: _372  and  _373
REMARK  163  A    between atoms: _373  and  _374
REMARK  164  A    between atoms: _379  and  _381
REMARK  165  A    between atoms: _381  and  _382
REMARK  166  A    between atoms: _381  and  _384
REMARK  167  A    between atoms: _384  and  _385
REMARK  168  A    between atoms: _388  and  _390
REMARK  169  A    between atoms: _390  and  _391
REMARK  170  A    between atoms: _390  and  _393
REMARK  171  A    between atoms: _393  and  _394
REMARK  172  A    between atoms: _400  and  _402
REMARK  173  A    between atoms: _402  and  _403
REMARK  174  A    between atoms: _402  and  _405
REMARK  175  A    between atoms: _405  and  _406
REMARK  176  A    between atoms: _409  and  _411
REMARK  177  A    between atoms: _411  and  _412
REMARK  178  A    between atoms: _411  and  _414
REMARK  179  A    between atoms: _414  and  _415
REMARK  180  A    between atoms: _418  and  _420
REMARK  181  A    between atoms: _420  and  _421
REMARK  182  A    between atoms: _420  and  _423
REMARK  183  A    between atoms: _423  and  _424
REMARK  184  A    between atoms: _424  and  _425
REMARK  185  A    between atoms: _428  and  _430
REMARK  186  A    between atoms: _430  and  _431
REMARK  187  A    between atoms: _430  and  _433
REMARK  188  A    between atoms: _433  and  _434
REMARK  189  A    between atoms: _439  and  _440
REMARK  190  A    between atoms: _442  and  _444
REMARK  191  A    between atoms: _444  and  _445
REMARK  192  A    between atoms: _444  and  _447
REMARK  193  A    between atoms: _447  and  _448
REMARK  194  A    between atoms: _451  and  _453
REMARK  195  A    between atoms: _453  and  _454
REMARK  196  A    between atoms: _453  and  _456
REMARK  197  A    between atoms: _456  and  _457
REMARK  198  A    between atoms: _457  and  _458
REMARK  199  A    between atoms: _463  and  _465
REMARK  200  A    between atoms: _465  and  _466
REMARK  201  A    between atoms: _465  and  _468
REMARK  202  A    between atoms: _468  and  _469
REMARK  203  A    between atoms: _474  and  _475
REMARK  204  A    between atoms: _477  and  _479
REMARK  205  A    between atoms: _479  and  _480
REMARK  206  A    between atoms: _479  and  _482
REMARK  207  A    between atoms: _482  and  _483
REMARK  208  A    between atoms: _486  and  _488
REMARK  209  A    between atoms: _488  and  _489
REMARK  210  A    between atoms: _488  and  _491
REMARK  211  A    between atoms: _491  and  _492
REMARK  212  A    between atoms: _497  and  _498
REMARK  213  A    between atoms: _500  and  _502
REMARK  214  A    between atoms: _502  and  _503
REMARK  215  A    between atoms: _502  and  _505
REMARK  216  A    between atoms: _505  and  _506
REMARK  217  A    between atoms: _511  and  _512
REMARK  218  A    between atoms: _515  and  _516
REMARK  219  A    between atoms: _521  and  _523
REMARK  220  A    between atoms: _523  and  _524
REMARK  221  A    between atoms: _523  and  _526
REMARK  222  A    between atoms: _526  and  _527
REMARK  223  A    between atoms: _530  and  _532
REMARK  224  A    between atoms: _532  and  _533
REMARK  225  A    between atoms: _532  and  _535
REMARK  226  A    between atoms: _535  and  _536
REMARK                            x       y       z     vdW  Elec       q    Type
REMARK                         _______ _______ _______ _____ _____    ______ ____
ROOT
ATOM      1  O   HOH     1      32.928  36.523  22.931  0.00  0.00    +0.000 OA
ENDROOT
TORSDOF 0
REMARK  Name = ../refined-set-2016/3aaq/3aaq_pocket.pdb
REMARK  226 active torsions:
REMARK  status: ('A' for Active; 'I' for Inactive)
REMARK    1  A    between atoms: _1  and  _3
REMARK    2  A    between atoms: _3  and  _4
REMARK    3  A    between atoms: _3  and  _6
REMARK    4  A    between atoms: _6  and  _7
REMARK    5  A    between atoms: _10  and  _12
REMARK    6  A    between atoms: _12  and  _13
REMARK    7  A    between atoms: _16  and  _18
REMARK    8  A    between atoms: _18  and  _19
REMARK    9  A    between atoms: _21  and  _23
REMARK   10  A    between atoms: _23  and  _24
REMARK   11  A    between atoms: _23  and  _26
REMARK   12  A    between atoms: _26  and  _27
REMARK   13  A    between atoms: _29  and  _31
REMARK   14  A    between atoms: _31  and  _32
REMARK   15  A    between atoms: _31  and  _34
REMARK   16  A    between atoms: _34  and  _35
REMARK   17  A    between atoms: _38  and  _40
REMARK   18  A    between atoms: _40  and  _41
REMARK   19  A    between atoms: _43  and  _45
REMARK   20  A    between atoms: _45  and  _46
REMARK   21  A    between atoms: _45  and  _48
REMARK   22  A    between atoms: _48  and  _49
REMARK   23  A    between atoms: _51  and  _53
REMARK   24  A    between atoms: _53  and  _54
REMARK   25  A    between atoms: _53  and  _56
REMARK   26  A    between atoms: _56  and  _57
REMARK   27  A    between atoms: _57  and  _58
REMARK   28  A    between atoms: _58  and  _59
REMARK   29  A    between atoms: _68  and  _70
REMARK   30  A    between atoms: _70  and  _71
REMARK   31  A    between atoms: _70  and  _73
REMARK   32  A    between atoms: _73  and  _74
REMARK   33  A    between atoms: _74  and  _75
REMARK   34  A    between atoms: _75  and  _76
REMARK   35  A    between atoms: _76  and  _77
REMARK   36  A    between atoms: _81  and  _83
REMARK   37  A    between atoms: _83  and  _84
REMARK   38  A    between atoms: _83  and  _86
REMARK   39  A    between atoms: _86  and  _87
REMARK   40  A    between atoms: _90  and  _92
REMARK   41  A    between atoms: _92  and  _93
REMARK   42  A    between atoms: _92  and  _95
REMARK   43  A    between atoms: _95  and  _96
REMARK   44  A    between atoms: _96  and  _97
REMARK   45  A    between atoms: _97  and  _98
REMARK   46  A    between atoms: _98  and  _99
REMARK   47  A    between atoms: _104  and  _105
REMARK   48  A    between atoms: _110  and  _112
REMARK   49  A    between atoms: _112  and  _113
REMARK   50  A    between atoms: _115  and  _117
REMARK   51  A    between atoms: _117  and  _118
REMARK   52  A    between atoms: _117  and  _120
REMARK   53  A    between atoms: _120  and  _121
REMARK   54  A    between atoms: _127  and  _129
REMARK   55  A    between atoms: _129  and  _130
REMARK   56  A    between atoms: _129  and  _132
REMARK   57  A    between atoms: _132  and  _133
REMARK   58  A    between atoms: _136  and  _138
REMARK   59  A    between atoms: _138  and  _139
REMARK   60  A    between atoms: _142  and  _144
REMARK   61  A    between atoms: _144  and  _145
REMARK   62  A    between atoms: _147  and  _149
REMARK   63  A    between atoms: _149  and  _150
REMARK   64  A    between atoms: _149  and  _152
REMARK   65  A    between atoms: _152  and  _153
REMARK   66  A    between atoms: _153  and  _154
REMARK   67  A    between atoms: _156  and  _158
REMARK   68  A    between atoms: _158  and  _159
REMARK   69  A    between atoms: _158  and  _161
REMARK   70  A    between atoms: _161  and  _162
REMARK   71  A    between atoms: _162  and  _163
REMARK   72  A    between atoms: _163  and  _164
REMARK   73  A    between atoms: _173  and  _175
REMARK   74  A    between atoms: _175  and  _176
REMARK   75  A    between atoms: _175  and  _178
REMARK   76  A    between atoms: _178  and  _179
REMARK   77  A    between atoms: _179  and  _180
REMARK   78  A    between atoms: _183  and  _185
REMARK   79  A    between atoms: _185  and  _186
REMARK   80  A    between atoms: _185  and  _188
REMARK   81  A    between atoms: _188  and  _189
REMARK   82  A    between atoms: _192  and  _194
REMARK   83  A    between atoms: _194  and  _195
REMARK   84  A    between atoms: _194  and  _197
REMARK   85  A    between atoms: _197  and  _198
REMARK   86  A    between atoms: _198  and  _199
REMARK   87  A    between atoms: _201  and  _203
REMARK   88  A    between atoms: _203  and  _204
REMARK   89  A    between atoms: _206  and  _208
REMARK   90  A    between atoms: _208  and  _209
REMARK   91  A    between atoms: _211  and  _213
REMARK   92  A    between atoms: _213  and  _214
REMARK   93  A    between atoms: _217  and  _219
REMARK   94  A    between atoms: _219  and  _220
REMARK   95  A    between atoms: _219  and  _222
REMARK   96  A    between atoms: _222  and  _223
REMARK   97  A    between atoms: _225  and  _227
REMARK   98  A    between atoms: _227  and  _228
REMARK   99  A    between atoms: _227  and  _230
REMARK  100  A    between atoms: _233  and  _235
REMARK  101  A    between atoms: _235  and  _236
REMARK  102  A    between atoms: _235  and  _238
REMARK  103  A    between atoms: _238  and  _239
REMARK  104  A    between atoms: _239  and  _240
REMARK  105  A    between atoms: _245  and  _247
REMARK  106  A    between atoms: _247  and  _248
REMARK  107  A    between atoms: _250  and  _252
REMARK  108  A    between atoms: _252  and  _253
REMARK  109  A    between atoms: _252  and  _255
REMARK  110  A    between atoms: _255  and  _256
REMARK  111  A    between atoms: _256  and  _257
REMARK  112  A    between atoms: _262  and  _264
REMARK  113  A    between atoms: _264  and  _265
REMARK  114  A    between atoms: _264  and  _267
REMARK  115  A    between atoms: _267  and  _268
REMARK  116  A    between atoms: _271  and  _273
REMARK  117  A    between atoms: _273  and  _274
REMARK  118  A    between atoms: _273  and  _276
REMARK  119  A    between atoms: _276  and  _277
REMARK  120  A    between atoms: _277  and  _278
REMARK  121  A    between atoms: _281  and  _283
REMARK  122  A    between atoms: _283  and  _284
REMARK  123  A    between atoms: _283  and  _286
REMARK  124  A    between atoms: _286  and  _287
REMARK  125  A    between atoms: _289  and  _291
REMARK  126  A    between atoms: _291  and  _292
REMARK  127  A    between atoms: _291  and  _294
REMARK  128  A    between atoms: _294  and  _295
REMARK  129  A    between atoms: _298  and  _300
REMARK  130  A    between atoms: _300  and  _301
REMARK  131  A    between atoms: _303  and  _305
REMARK  132  A    between atoms: _305  and  _306
REMARK  133  A    between atoms: _308  and  _310
REMARK  134  A    between atoms: _310  and  _311
REMARK  135  A    between atoms: _310  and  _313
REMARK  136  A    between atoms: _313  and  _314
REMARK  137  A    between atoms: _317  and  _319
REMARK  138  A    between atoms: _319  and  _320
REMARK  139  A    between atoms: _319  and  _322
REMARK  140  A    between atoms: _322  and  _323
REMARK  141  A    between atoms: _325  and  _327
REMARK  142  A    between atoms: _327  and  _328
REMARK  143  A    between atoms: _327  and  _330
REMARK  144  A    between atoms: _330  and  _331
REMARK  145  A    between atoms: _336  and  _338
REMARK  146  A    between atoms: _338  and  _339
REMARK  147  A    between atoms: _338  and  _341
REMARK  148  A    between atoms: _341  and  _342
REMARK  149  A    between atoms: _345  and  _347
REMARK  150  A    between atoms: _347  and  _348
REMARK  151  A    between atoms: _351  and  _353
REMARK  152  A    between atoms: _353  and  _354
REMARK  153  A    between atoms: _353  and  _356
REMARK  154  A    between atoms: _356  and  _357
REMARK  155  A    between atoms: _359  and  _361
REMARK  156  A    between atoms: _361  and  _362
REMARK  157  A    between atoms: _361  and  _364
REMARK  158  A    between atoms: _364  and  _365
REMARK  159  A    between atoms: _367  and  _369
REMARK  160  A    between atoms: _369  and  _370
REMARK  161  A    between atoms: _369  and  _372
REMARK  162  A    between atoms: _372  and  _373
REMARK  163  A    between atoms: _373  and  _374
REMARK  164  A    between atoms: _379  and  _381
REMARK  165  A    between atoms: _381  and  _382
REMARK  166  A    between atoms: _381  and  _384
REMARK  167  A    between atoms: _384  and  _385
REMARK  168  A    between atoms: _388  and  _390
REMARK  169  A    between atoms: _390  and  _391
REMARK  170  A    between atoms: _390  and  _393
REMARK  171  A    between atoms: _393  and  _394
REMARK  172  A    between atoms: _400  and  _402
REMARK  173  A    between atoms: _402  and  _403
REMARK  174  A    between atoms: _402  and  _405
REMARK  175  A    between atoms: _405  and  _406
REMARK  176  A    between atoms: _409  and  _411
REMARK  177  A    between atoms: _411  and  _412
REMARK  178  A    between atoms: _411  and  _414
REMARK  179  A    between atoms: _414  and  _415
REMARK  180  A    between atoms: _418  and  _420
REMARK  181  A    between atoms: _420  and  _421
REMARK  182  A    between atoms: _420  and  _423
REMARK  183  A    between atoms: _423  and  _424
REMARK  184  A    between atoms: _424  and  _425
REMARK  185  A    between atoms: _428  and  _430
REMARK  186  A    between atoms: _430  and  _431
REMARK  187  A    between atoms: _430  and  _433
REMARK  188  A    between atoms: _433  and  _434
REMARK  189  A    between atoms: _439  and  _440
REMARK  190  A    between atoms: _442  and  _444
REMARK  191  A    between atoms: _444  and  _445
REMARK  192  A    between atoms: _444  and  _447
REMARK  193  A    between atoms: _447  and  _448
REMARK  194  A    between atoms: _451  and  _453
REMARK  195  A    between atoms: _453  and  _454
REMARK  196  A    between atoms: _453  and  _456
REMARK  197  A    between atoms: _456  and  _457
REMARK  198  A    between atoms: _457  and  _458
REMARK  199  A    between atoms: _463  and  _465
REMARK  200  A    between atoms: _465  and  _466
REMARK  201  A    between atoms: _465  and  _468
REMARK  202  A    between atoms: _468  and  _469
REMARK  203  A    between atoms: _474  and  _475
REMARK  204  A    between atoms: _477  and  _479
REMARK  205  A    between atoms: _479  and  _480
REMARK  206  A    between atoms: _479  and  _482
REMARK  207  A    between atoms: _482  and  _483
REMARK  208  A    between atoms: _486  and  _488
REMARK  209  A    between atoms: _488  and  _489
REMARK  210  A    between atoms: _488  and  _491
REMARK  211  A    between atoms: _491  and  _492
REMARK  212  A    between atoms: _497  and  _498
REMARK  213  A    between atoms: _500  and  _502
REMARK  214  A    between atoms: _502  and  _503
REMARK  215  A    between atoms: _502  and  _505
REMARK  216  A    between atoms: _505  and  _506
REMARK  217  A    between atoms: _511  and  _512
REMARK  218  A    between atoms: _515  and  _516
REMARK  219  A    between atoms: _521  and  _523
REMARK  220  A    between atoms: _523  and  _524
REMARK  221  A    between atoms: _523  and  _526
REMARK  222  A    between atoms: _526  and  _527
REMARK  223  A    between atoms: _530  and  _532
REMARK  224  A    between atoms: _532  and  _533
REMARK  225  A    between atoms: _532  and  _535
REMARK  226  A    between atoms: _535  and  _536
REMARK                            x       y       z     vdW  Elec       q    Type
REMARK                         _______ _______ _______ _____ _____    ______ ____
ROOT
ATOM      1  O   HOH     1      28.231  25.145  29.863  0.00  0.00    +0.000 OA
ENDROOT
TORSDOF 0
REMARK  Name = ../refined-set-2016/3aaq/3aaq_pocket.pdb
REMARK  226 active torsions:
REMARK  status: ('A' for Active; 'I' for Inactive)
REMARK    1  A    between atoms: _1  and  _3
REMARK    2  A    between atoms: _3  and  _4
REMARK    3  A    between atoms: _3  and  _6
REMARK    4  A    between atoms: _6  and  _7
REMARK    5  A    between atoms: _10  and  _12
REMARK    6  A    between atoms: _12  and  _13
REMARK    7  A    between atoms: _16  and  _18
REMARK    8  A    between atoms: _18  and  _19
REMARK    9  A    between atoms: _21  and  _23
REMARK   10  A    between atoms: _23  and  _24
REMARK   11  A    between atoms: _23  and  _26
REMARK   12  A    between atoms: _26  and  _27
REMARK   13  A    between atoms: _29  and  _31
REMARK   14  A    between atoms: _31  and  _32
REMARK   15  A    between atoms: _31  and  _34
REMARK   16  A    between atoms: _34  and  _35
REMARK   17  A    between atoms: _38  and  _40
REMARK   18  A    between atoms: _40  and  _41
REMARK   19  A    between atoms: _43  and  _45
REMARK   20  A    between atoms: _45  and  _46
REMARK   21  A    between atoms: _45  and  _48
REMARK   22  A    between atoms: _48  and  _49
REMARK   23  A    between atoms: _51  and  _53
REMARK   24  A    between atoms: _53  and  _54
REMARK   25  A    between atoms: _53  and  _56
REMARK   26  A    between atoms: _56  and  _57
REMARK   27  A    between atoms: _57  and  _58
REMARK   28  A    between atoms: _58  and  _59
REMARK   29  A    between atoms: _68  and  _70
REMARK   30  A    between atoms: _70  and  _71
REMARK   31  A    between atoms: _70  and  _73
REMARK   32  A    between atoms: _73  and  _74
REMARK   33  A    between atoms: _74  and  _75
REMARK   34  A    between atoms: _75  and  _76
REMARK   35  A    between atoms: _76  and  _77
REMARK   36  A    between atoms: _81  and  _83
REMARK   37  A    between atoms: _83  and  _84
REMARK   38  A    between atoms: _83  and  _86
REMARK   39  A    between atoms: _86  and  _87
REMARK   40  A    between atoms: _90  and  _92
REMARK   41  A    between atoms: _92  and  _93
REMARK   42  A    between atoms: _92  and  _95
REMARK   43  A    between atoms: _95  and  _96
REMARK   44  A    between atoms: _96  and  _97
REMARK   45  A    between atoms: _97  and  _98
REMARK   46  A    between atoms: _98  and  _99
REMARK   47  A    between atoms: _104  and  _105
REMARK   48  A    between atoms: _110  and  _112
REMARK   49  A    between atoms: _112  and  _113
REMARK   50  A    between atoms: _115  and  _117
REMARK   51  A    between atoms: _117  and  _118
REMARK   52  A    between atoms: _117  and  _120
REMARK   53  A    between atoms: _120  and  _121
REMARK   54  A    between atoms: _127  and  _129
REMARK   55  A    between atoms: _129  and  _130
REMARK   56  A    between atoms: _129  and  _132
REMARK   57  A    between atoms: _132  and  _133
REMARK   58  A    between atoms: _136  and  _138
REMARK   59  A    between atoms: _138  and  _139
REMARK   60  A    between atoms: _142  and  _144
REMARK   61  A    between atoms: _144  and  _145
REMARK   62  A    between atoms: _147  and  _149
REMARK   63  A    between atoms: _149  and  _150
REMARK   64  A    between atoms: _149  and  _152
REMARK   65  A    between atoms: _152  and  _153
REMARK   66  A    between atoms: _153  and  _154
REMARK   67  A    between atoms: _156  and  _158
REMARK   68  A    between atoms: _158  and  _159
REMARK   69  A    between atoms: _158  and  _161
REMARK   70  A    between atoms: _161  and  _162
REMARK   71  A    between atoms: _162  and  _163
REMARK   72  A    between atoms: _163  and  _164
REMARK   73  A    between atoms: _173  and  _175
REMARK   74  A    between atoms: _175  and  _176
REMARK   75  A    between atoms: _175  and  _178
REMARK   76  A    between atoms: _178  and  _179
REMARK   77  A    between atoms: _179  and  _180
REMARK   78  A    between atoms: _183  and  _185
REMARK   79  A    between atoms: _185  and  _186
REMARK   80  A    between atoms: _185  and  _188
REMARK   81  A    between atoms: _188  and  _189
REMARK   82  A    between atoms: _192  and  _194
REMARK   83  A    between atoms: _194  and  _195
REMARK   84  A    between atoms: _194  and  _197
REMARK   85  A    between atoms: _197  and  _198
REMARK   86  A    between atoms: _198  and  _199
REMARK   87  A    between atoms: _201  and  _203
REMARK   88  A    between atoms: _203  and  _204
REMARK   89  A    between atoms: _206  and  _208
REMARK   90  A    between atoms: _208  and  _209
REMARK   91  A    between atoms: _211  and  _213
REMARK   92  A    between atoms: _213  and  _214
REMARK   93  A    between atoms: _217  and  _219
REMARK   94  A    between atoms: _219  and  _220
REMARK   95  A    between atoms: _219  and  _222
REMARK   96  A    between atoms: _222  and  _223
REMARK   97  A    between atoms: _225  and  _227
REMARK   98  A    between atoms: _227  and  _228
REMARK   99  A    between atoms: _227  and  _230
REMARK  100  A    between atoms: _233  and  _235
REMARK  101  A    between atoms: _235  and  _236
REMARK  102  A    between atoms: _235  and  _238
REMARK  103  A    between atoms: _238  and  _239
REMARK  104  A    between atoms: _239  and  _240
REMARK  105  A    between atoms: _245  and  _247
REMARK  106  A    between atoms: _247  and  _248
REMARK  107  A    between atoms: _250  and  _252
REMARK  108  A    between atoms: _252  and  _253
REMARK  109  A    between atoms: _252  and  _255
REMARK  110  A    between atoms: _255  and  _256
REMARK  111  A    between atoms: _256  and  _257
REMARK  112  A    between atoms: _262  and  _264
REMARK  113  A    between atoms: _264  and  _265
REMARK  114  A    between atoms: _264  and  _267
REMARK  115  A    between atoms: _267  and  _268
REMARK  116  A    between atoms: _271  and  _273
REMARK  117  A    between atoms: _273  and  _274
REMARK  118  A    between atoms: _273  and  _276
REMARK  119  A    between atoms: _276  and  _277
REMARK  120  A    between atoms: _277  and  _278
REMARK  121  A    between atoms: _281  and  _283
REMARK  122  A    between atoms: _283  and  _284
REMARK  123  A    between atoms: _283  and  _286
REMARK  124  A    between atoms: _286  and  _287
REMARK  125  A    between atoms: _289  and  _291
REMARK  126  A    between atoms: _291  and  _292
REMARK  127  A    between atoms: _291  and  _294
REMARK  128  A    between atoms: _294  and  _295
REMARK  129  A    between atoms: _298  and  _300
REMARK  130  A    between atoms: _300  and  _301
REMARK  131  A    between atoms: _303  and  _305
REMARK  132  A    between atoms: _305  and  _306
REMARK  133  A    between atoms: _308  and  _310
REMARK  134  A    between atoms: _310  and  _311
REMARK  135  A    between atoms: _310  and  _313
REMARK  136  A    between atoms: _313  and  _314
REMARK  137  A    between atoms: _317  and  _319
REMARK  138  A    between atoms: _319  and  _320
REMARK  139  A    between atoms: _319  and  _322
REMARK  140  A    between atoms: _322  and  _323
REMARK  141  A    between atoms: _325  and  _327
REMARK  142  A    between atoms: _327  and  _328
REMARK  143  A    between atoms: _327  and  _330
REMARK  144  A    between atoms: _330  and  _331
REMARK  145  A    between atoms: _336  and  _338
REMARK  146  A    between atoms: _338  and  _339
REMARK  147  A    between atoms: _338  and  _341
REMARK  148  A    between atoms: _341  and  _342
REMARK  149  A    between atoms: _345  and  _347
REMARK  150  A    between atoms: _347  and  _348
REMARK  151  A    between atoms: _351  and  _353
REMARK  152  A    between atoms: _353  and  _354
REMARK  153  A    between atoms: _353  and  _356
REMARK  154  A    between atoms: _356  and  _357
REMARK  155  A    between atoms: _359  and  _361
REMARK  156  A    between atoms: _361  and  _362
REMARK  157  A    between atoms: _361  and  _364
REMARK  158  A    between atoms: _364  and  _365
REMARK  159  A    between atoms: _367  and  _369
REMARK  160  A    between atoms: _369  and  _370
REMARK  161  A    between atoms: _369  and  _372
REMARK  162  A    between atoms: _372  and  _373
REMARK  163  A    between atoms: _373  and  _374
REMARK  164  A    between atoms: _379  and  _381
REMARK  165  A    between atoms: _381  and  _382
REMARK  166  A    between atoms: _381  and  _384
REMARK  167  A    between atoms: _384  and  _385
REMARK  168  A    between atoms: _388  and  _390
REMARK  169  A    between atoms: _390  and  _391
REMARK  170  A    between atoms: _390  and  _393
REMARK  171  A    between atoms: _393  and  _394
REMARK  172  A    between atoms: _400  and  _402
REMARK  173  A    between atoms: _402  and  _403
REMARK  174  A    between atoms: _402  and  _405
REMARK  175  A    between atoms: _405  and  _406
REMARK  176  A    between atoms: _409  and  _411
REMARK  177  A    between atoms: _411  and  _412
REMARK  178  A    between atoms: _411  and  _414
REMARK  179  A    between atoms: _414  and  _415
REMARK  180  A    between atoms: _418  and  _420
REMARK  181  A    between atoms: _420  and  _421
REMARK  182  A    between atoms: _420  and  _423
REMARK  183  A    between atoms: _423  and  _424
REMARK  184  A    between atoms: _424  and  _425
REMARK  185  A    between atoms: _428  and  _430
REMARK  186  A    between atoms: _430  and  _431
REMARK  187  A    between atoms: _430  and  _433
REMARK  188  A    between atoms: _433  and  _434
REMARK  189  A    between atoms: _439  and  _440
REMARK  190  A    between atoms: _442  and  _444
REMARK  191  A    between atoms: _444  and  _445
REMARK  192  A    between atoms: _444  and  _447
REMARK  193  A    between atoms: _447  and  _448
REMARK  194  A    between atoms: _451  and  _453
REMARK  195  A    between atoms: _453  and  _454
REMARK  196  A    between atoms: _453  and  _456
REMARK  197  A    between atoms: _456  and  _457
REMARK  198  A    between atoms: _457  and  _458
REMARK  199  A    between atoms: _463  and  _465
REMARK  200  A    between atoms: _465  and  _466
REMARK  201  A    between atoms: _465  and  _468
REMARK  202  A    between atoms: _468  and  _469
REMARK  203  A    between atoms: _474  and  _475
REMARK  204  A    between atoms: _477  and  _479
REMARK  205  A    between atoms: _479  and  _480
REMARK  206  A    between atoms: _479  and  _482
REMARK  207  A    between atoms: _482  and  _483
REMARK  208  A    between atoms: _486  and  _488
REMARK  209  A    between atoms: _488  and  _489
REMARK  210  A    between atoms: _488  and  _491
REMARK  211  A    between atoms: _491  and  _492
REMARK  212  A    between atoms: _497  and  _498
REMARK  213  A    between atoms: _500  and  _502
REMARK  214  A    between atoms: _502  and  _503
REMARK  215  A    between atoms: _502  and  _505
REMARK  216  A    between atoms: _505  and  _506
REMARK  217  A    between atoms: _511  and  _512
REMARK  218  A    between atoms: _515  and  _516
REMARK  219  A    between atoms: _521  and  _523
REMARK  220  A    between atoms: _523  and  _524
REMARK  221  A    between atoms: _523  and  _526
REMARK  222  A    between atoms: _526  and  _527
REMARK  223  A    between atoms: _530  and  _532
REMARK  224  A    between atoms: _532  and  _533
REMARK  225  A    between atoms: _532  and  _535
REMARK  226  A    between atoms: _535  and  _536
REMARK                            x       y       z     vdW  Elec       q    Type
REMARK                         _______ _______ _______ _____ _____    ______ ____
ROOT
ATOM      1  O   HOH     1      24.080  33.584  28.582  0.00  0.00    +0.000 OA
ENDROOT
TORSDOF 0
REMARK  Name = ../refined-set-2016/3aaq/3aaq_pocket.pdb
REMARK  226 active torsions:
REMARK  status: ('A' for Active; 'I' for Inactive)
REMARK    1  A    between atoms: _1  and  _3
REMARK    2  A    between atoms: _3  and  _4
REMARK    3  A    between atoms: _3  and  _6
REMARK    4  A    between atoms: _6  and  _7
REMARK    5  A    between atoms: _10  and  _12
REMARK    6  A    between atoms: _12  and  _13
REMARK    7  A    between atoms: _16  and  _18
REMARK    8  A    between atoms: _18  and  _19
REMARK    9  A    between atoms: _21  and  _23
REMARK   10  A    between atoms: _23  and  _24
REMARK   11  A    between atoms: _23  and  _26
REMARK   12  A    between atoms: _26  and  _27
REMARK   13  A    between atoms: _29  and  _31
REMARK   14  A    between atoms: _31  and  _32
REMARK   15  A    between atoms: _31  and  _34
REMARK   16  A    between atoms: _34  and  _35
REMARK   17  A    between atoms: _38  and  _40
REMARK   18  A    between atoms: _40  and  _41
REMARK   19  A    between atoms: _43  and  _45
REMARK   20  A    between atoms: _45  and  _46
REMARK   21  A    between atoms: _45  and  _48
REMARK   22  A    between atoms: _48  and  _49
REMARK   23  A    between atoms: _51  and  _53
REMARK   24  A    between atoms: _53  and  _54
REMARK   25  A    between atoms: _53  and  _56
REMARK   26  A    between atoms: _56  and  _57
REMARK   27  A    between atoms: _57  and  _58
REMARK   28  A    between atoms: _58  and  _59
REMARK   29  A    between atoms: _68  and  _70
REMARK   30  A    between atoms: _70  and  _71
REMARK   31  A    between atoms: _70  and  _73
REMARK   32  A    between atoms: _73  and  _74
REMARK   33  A    between atoms: _74  and  _75
REMARK   34  A    between atoms: _75  and  _76
REMARK   35  A    between atoms: _76  and  _77
REMARK   36  A    between atoms: _81  and  _83
REMARK   37  A    between atoms: _83  and  _84
REMARK   38  A    between atoms: _83  and  _86
REMARK   39  A    between atoms: _86  and  _87
REMARK   40  A    between atoms: _90  and  _92
REMARK   41  A    between atoms: _92  and  _93
REMARK   42  A    between atoms: _92  and  _95
REMARK   43  A    between atoms: _95  and  _96
REMARK   44  A    between atoms: _96  and  _97
REMARK   45  A    between atoms: _97  and  _98
REMARK   46  A    between atoms: _98  and  _99
REMARK   47  A    between atoms: _104  and  _105
REMARK   48  A    between atoms: _110  and  _112
REMARK   49  A    between atoms: _112  and  _113
REMARK   50  A    between atoms: _115  and  _117
REMARK   51  A    between atoms: _117  and  _118
REMARK   52  A    between atoms: _117  and  _120
REMARK   53  A    between atoms: _120  and  _121
REMARK   54  A    between atoms: _127  and  _129
REMARK   55  A    between atoms: _129  and  _130
REMARK   56  A    between atoms: _129  and  _132
REMARK   57  A    between atoms: _132  and  _133
REMARK   58  A    between atoms: _136  and  _138
REMARK   59  A    between atoms: _138  and  _139
REMARK   60  A    between atoms: _142  and  _144
REMARK   61  A    between atoms: _144  and  _145
REMARK   62  A    between atoms: _147  and  _149
REMARK   63  A    between atoms: _149  and  _150
REMARK   64  A    between atoms: _149  and  _152
REMARK   65  A    between atoms: _152  and  _153
REMARK   66  A    between atoms: _153  and  _154
REMARK   67  A    between atoms: _156  and  _158
REMARK   68  A    between atoms: _158  and  _159
REMARK   69  A    between atoms: _158  and  _161
REMARK   70  A    between atoms: _161  and  _162
REMARK   71  A    between atoms: _162  and  _163
REMARK   72  A    between atoms: _163  and  _164
REMARK   73  A    between atoms: _173  and  _175
REMARK   74  A    between atoms: _175  and  _176
REMARK   75  A    between atoms: _175  and  _178
REMARK   76  A    between atoms: _178  and  _179
REMARK   77  A    between atoms: _179  and  _180
REMARK   78  A    between atoms: _183  and  _185
REMARK   79  A    between atoms: _185  and  _186
REMARK   80  A    between atoms: _185  and  _188
REMARK   81  A    between atoms: _188  and  _189
REMARK   82  A    between atoms: _192  and  _194
REMARK   83  A    between atoms: _194  and  _195
REMARK   84  A    between atoms: _194  and  _197
REMARK   85  A    between atoms: _197  and  _198
REMARK   86  A    between atoms: _198  and  _199
REMARK   87  A    between atoms: _201  and  _203
REMARK   88  A    between atoms: _203  and  _204
REMARK   89  A    between atoms: _206  and  _208
REMARK   90  A    between atoms: _208  and  _209
REMARK   91  A    between atoms: _211  and  _213
REMARK   92  A    between atoms: _213  and  _214
REMARK   93  A    between atoms: _217  and  _219
REMARK   94  A    between atoms: _219  and  _220
REMARK   95  A    between atoms: _219  and  _222
REMARK   96  A    between atoms: _222  and  _223
REMARK   97  A    between atoms: _225  and  _227
REMARK   98  A    between atoms: _227  and  _228
REMARK   99  A    between atoms: _227  and  _230
REMARK  100  A    between atoms: _233  and  _235
REMARK  101  A    between atoms: _235  and  _236
REMARK  102  A    between atoms: _235  and  _238
REMARK  103  A    between atoms: _238  and  _239
REMARK  104  A    between atoms: _239  and  _240
REMARK  105  A    between atoms: _245  and  _247
REMARK  106  A    between atoms: _247  and  _248
REMARK  107  A    between atoms: _250  and  _252
REMARK  108  A    between atoms: _252  and  _253
REMARK  109  A    between atoms: _252  and  _255
REMARK  110  A    between atoms: _255  and  _256
REMARK  111  A    between atoms: _256  and  _257
REMARK  112  A    between atoms: _262  and  _264
REMARK  113  A    between atoms: _264  and  _265
REMARK  114  A    between atoms: _264  and  _267
REMARK  115  A    between atoms: _267  and  _268
REMARK  116  A    between atoms: _271  and  _273
REMARK  117  A    between atoms: _273  and  _274
REMARK  118  A    between atoms: _273  and  _276
REMARK  119  A    between atoms: _276  and  _277
REMARK  120  A    between atoms: _277  and  _278
REMARK  121  A    between atoms: _281  and  _283
REMARK  122  A    between atoms: _283  and  _284
REMARK  123  A    between atoms: _283  and  _286
REMARK  124  A    between atoms: _286  and  _287
REMARK  125  A    between atoms: _289  and  _291
REMARK  126  A    between atoms: _291  and  _292
REMARK  127  A    between atoms: _291  and  _294
REMARK  128  A    between atoms: _294  and  _295
REMARK  129  A    between atoms: _298  and  _300
REMARK  130  A    between atoms: _300  and  _301
REMARK  131  A    between atoms: _303  and  _305
REMARK  132  A    between atoms: _305  and  _306
REMARK  133  A    between atoms: _308  and  _310
REMARK  134  A    between atoms: _310  and  _311
REMARK  135  A    between atoms: _310  and  _313
REMARK  136  A    between atoms: _313  and  _314
REMARK  137  A    between atoms: _317  and  _319
REMARK  138  A    between atoms: _319  and  _320
REMARK  139  A    between atoms: _319  and  _322
REMARK  140  A    between atoms: _322  and  _323
REMARK  141  A    between atoms: _325  and  _327
REMARK  142  A    between atoms: _327  and  _328
REMARK  143  A    between atoms: _327  and  _330
REMARK  144  A    between atoms: _330  and  _331
REMARK  145  A    between atoms: _336  and  _338
REMARK  146  A    between atoms: _338  and  _339
REMARK  147  A    between atoms: _338  and  _341
REMARK  148  A    between atoms: _341  and  _342
REMARK  149  A    between atoms: _345  and  _347
REMARK  150  A    between atoms: _347  and  _348
REMARK  151  A    between atoms: _351  and  _353
REMARK  152  A    between atoms: _353  and  _354
REMARK  153  A    between atoms: _353  and  _356
REMARK  154  A    between atoms: _356  and  _357
REMARK  155  A    between atoms: _359  and  _361
REMARK  156  A    between atoms: _361  and  _362
REMARK  157  A    between atoms: _361  and  _364
REMARK  158  A    between atoms: _364  and  _365
REMARK  159  A    between atoms: _367  and  _369
REMARK  160  A    between atoms: _369  and  _370
REMARK  161  A    between atoms: _369  and  _372
REMARK  162  A    between atoms: _372  and  _373
REMARK  163  A    between atoms: _373  and  _374
REMARK  164  A    between atoms: _379  and  _381
REMARK  165  A    between atoms: _381  and  _382
REMARK  166  A    between atoms: _381  and  _384
REMARK  167  A    between atoms: _384  and  _385
REMARK  168  A    between atoms: _388  and  _390
REMARK  169  A    between atoms: _390  and  _391
REMARK  170  A    between atoms: _390  and  _393
REMARK  171  A    between atoms: _393  and  _394
REMARK  172  A    between atoms: _400  and  _402
REMARK  173  A    between atoms: _402  and  _403
REMARK  174  A    between atoms: _402  and  _405
REMARK  175  A    between atoms: _405  and  _406
REMARK  176  A    between atoms: _409  and  _411
REMARK  177  A    between atoms: _411  and  _412
REMARK  178  A    between atoms: _411  and  _414
REMARK  179  A    between atoms: _414  and  _415
REMARK  180  A    between atoms: _418  and  _420
REMARK  181  A    between atoms: _420  and  _421
REMARK  182  A    between atoms: _420  and  _423
REMARK  183  A    between atoms: _423  and  _424
REMARK  184  A    between atoms: _424  and  _425
REMARK  185  A    between atoms: _428  and  _430
REMARK  186  A    between atoms: _430  and  _431
REMARK  187  A    between atoms: _430  and  _433
REMARK  188  A    between atoms: _433  and  _434
REMARK  189  A    between atoms: _439  and  _440
REMARK  190  A    between atoms: _442  and  _444
REMARK  191  A    between atoms: _444  and  _445
REMARK  192  A    between atoms: _444  and  _447
REMARK  193  A    between atoms: _447  and  _448
REMARK  194  A    between atoms: _451  and  _453
REMARK  195  A    between atoms: _453  and  _454
REMARK  196  A    between atoms: _453  and  _456
REMARK  197  A    between atoms: _456  and  _457
REMARK  198  A    between atoms: _457  and  _458
REMARK  199  A    between atoms: _463  and  _465
REMARK  200  A    between atoms: _465  and  _466
REMARK  201  A    between atoms: _465  and  _468
REMARK  202  A    between atoms: _468  and  _469
REMARK  203  A    between atoms: _474  and  _475
REMARK  204  A    between atoms: _477  and  _479
REMARK  205  A    between atoms: _479  and  _480
REMARK  206  A    between atoms: _479  and  _482
REMARK  207  A    between atoms: _482  and  _483
REMARK  208  A    between atoms: _486  and  _488
REMARK  209  A    between atoms: _488  and  _489
REMARK  210  A    between atoms: _488  and  _491
REMARK  211  A    between atoms: _491  and  _492
REMARK  212  A    between atoms: _497  and  _498
REMARK  213  A    between atoms: _500  and  _502
REMARK  214  A    between atoms: _502  and  _503
REMARK  215  A    between atoms: _502  and  _505
REMARK  216  A    between atoms: _505  and  _506
REMARK  217  A    between atoms: _511  and  _512
REMARK  218  A    between atoms: _515  and  _516
REMARK  219  A    between atoms: _521  and  _523
REMARK  220  A    between atoms: _523  and  _524
REMARK  221  A    between atoms: _523  and  _526
REMARK  222  A    between atoms: _526  and  _527
REMARK  223  A    between atoms: _530  and  _532
REMARK  224  A    between atoms: _532  and  _533
REMARK  225  A    between atoms: _532  and  _535
REMARK  226  A    between atoms: _535  and  _536
REMARK                            x       y       z     vdW  Elec       q    Type
REMARK                         _______ _______ _______ _____ _____    ______ ____
ROOT
ATOM      1  O   HOH     1      25.271  32.451  24.840  0.00  0.00    +0.000 OA
ENDROOT
TORSDOF 0
