REMARK  Name = ../refined-set-2016/3ao1/3ao1_pocket.pdb
REMARK  119 active torsions:
REMARK  status: ('A' for Active; 'I' for Inactive)
REMARK    1  A    between atoms: _1  and  _3
REMARK    2  A    between atoms: _3  and  _4
REMARK    3  A    between atoms: _3  and  _6
REMARK    4  A    between atoms: _6  and  _7
REMARK    5  A    between atoms: _12  and  _13
REMARK    6  A    between atoms: _15  and  _17
REMARK    7  A    between atoms: _17  and  _18
REMARK    8  A    between atoms: _17  and  _20
REMARK    9  A    between atoms: _20  and  _21
REMARK   10  A    between atoms: _24  and  _26
REMARK   11  A    between atoms: _26  and  _27
REMARK   12  A    between atoms: _26  and  _29
REMARK   13  A    between atoms: _29  and  _30
REMARK   14  A    between atoms: _40  and  _42
REMARK   15  A    between atoms: _42  and  _43
REMARK   16  A    between atoms: _42  and  _45
REMARK   17  A    between atoms: _48  and  _50
REMARK   18  A    between atoms: _50  and  _51
REMARK   19  A    between atoms: _50  and  _53
REMARK   20  A    between atoms: _53  and  _54
REMARK   21  A    between atoms: _60  and  _62
REMARK   22  A    between atoms: _62  and  _63
REMARK   23  A    between atoms: _62  and  _65
REMARK   24  A    between atoms: _65  and  _66
REMARK   25  A    between atoms: _69  and  _71
REMARK   26  A    between atoms: _71  and  _72
REMARK   27  A    between atoms: _71  and  _74
REMARK   28  A    between atoms: _74  and  _75
REMARK   29  A    between atoms: _80  and  _82
REMARK   30  A    between atoms: _82  and  _83
REMARK   31  A    between atoms: _82  and  _85
REMARK   32  A    between atoms: _85  and  _86
REMARK   33  A    between atoms: _91  and  _93
REMARK   34  A    between atoms: _93  and  _94
REMARK   35  A    between atoms: _93  and  _96
REMARK   36  A    between atoms: _96  and  _97
REMARK   37  A    between atoms: _102  and  _104
REMARK   38  A    between atoms: _104  and  _105
REMARK   39  A    between atoms: _104  and  _107
REMARK   40  A    between atoms: _107  and  _108
REMARK   41  A    between atoms: _108  and  _109
REMARK   42  A    between atoms: _109  and  _110
REMARK   43  A    between atoms: _110  and  _111
REMARK   44  A    between atoms: _115  and  _117
REMARK   45  A    between atoms: _117  and  _118
REMARK   46  A    between atoms: _117  and  _120
REMARK   47  A    between atoms: _120  and  _121
REMARK   48  A    between atoms: _123  and  _125
REMARK   49  A    between atoms: _125  and  _126
REMARK   50  A    between atoms: _129  and  _131
REMARK   51  A    between atoms: _131  and  _132
REMARK   52  A    between atoms: _134  and  _136
REMARK   53  A    between atoms: _136  and  _137
REMARK   54  A    between atoms: _136  and  _139
REMARK   55  A    between atoms: _139  and  _140
REMARK   56  A    between atoms: _140  and  _141
REMARK   57  A    between atoms: _144  and  _146
REMARK   58  A    between atoms: _146  and  _147
REMARK   59  A    between atoms: _146  and  _149
REMARK   60  A    between atoms: _149  and  _150
REMARK   61  A    between atoms: _150  and  _151
REMARK   62  A    between atoms: _151  and  _152
REMARK   63  A    between atoms: _161  and  _163
REMARK   64  A    between atoms: _163  and  _164
REMARK   65  A    between atoms: _163  and  _166
REMARK   66  A    between atoms: _166  and  _167
REMARK   67  A    between atoms: _170  and  _172
REMARK   68  A    between atoms: _172  and  _173
REMARK   69  A    between atoms: _172  and  _175
REMARK   70  A    between atoms: _178  and  _180
REMARK   71  A    between atoms: _180  and  _181
REMARK   72  A    between atoms: _180  and  _183
REMARK   73  A    between atoms: _183  and  _184
REMARK   74  A    between atoms: _187  and  _189
REMARK   75  A    between atoms: _189  and  _190
REMARK   76  A    between atoms: _189  and  _192
REMARK   77  A    between atoms: _192  and  _193
REMARK   78  A    between atoms: _193  and  _194
REMARK   79  A    between atoms: _194  and  _195
REMARK   80  A    between atoms: _195  and  _196
REMARK   81  A    between atoms: _200  and  _202
REMARK   82  A    between atoms: _202  and  _203
REMARK   83  A    between atoms: _202  and  _205
REMARK   84  A    between atoms: _205  and  _206
REMARK   85  A    between atoms: _209  and  _211
REMARK   86  A    between atoms: _211  and  _212
REMARK   87  A    between atoms: _215  and  _217
REMARK   88  A    between atoms: _217  and  _218
REMARK   89  A    between atoms: _220  and  _222
REMARK   90  A    between atoms: _222  and  _223
REMARK   91  A    between atoms: _222  and  _225
REMARK   92  A    between atoms: _225  and  _226
REMARK   93  A    between atoms: _226  and  _227
REMARK   94  A    between atoms: _227  and  _228
REMARK   95  A    between atoms: _237  and  _239
REMARK   96  A    between atoms: _239  and  _240
REMARK   97  A    between atoms: _239  and  _242
REMARK   98  A    between atoms: _242  and  _243
REMARK   99  A    between atoms: _254  and  _255
REMARK  100  A    between atoms: _260  and  _262
REMARK  101  A    between atoms: _262  and  _263
REMARK  102  A    between atoms: _262  and  _265
REMARK  103  A    between atoms: _268  and  _270
REMARK  104  A    between atoms: _270  and  _271
REMARK  105  A    between atoms: _270  and  _273
REMARK  106  A    between atoms: _273  and  _274
REMARK  107  A    between atoms: _277  and  _279
REMARK  108  A    between atoms: _279  and  _280
REMARK  109  A    between atoms: _279  and  _282
REMARK  110  A    between atoms: _285  and  _287
REMARK  111  A    between atoms: _287  and  _288
REMARK  112  A    between atoms: _287  and  _290
REMARK  113  A    between atoms: _290  and  _291
REMARK  114  A    between atoms: _294  and  _296
REMARK  115  A    between atoms: _296  and  _297
REMARK  116  A    between atoms: _300  and  _302
REMARK  117  A    between atoms: _302  and  _303
REMARK  118  A    between atoms: _302  and  _305
REMARK  119  A    between atoms: _305  and  _306
REMARK                            x       y       z     vdW  Elec       q    Type
REMARK                         _______ _______ _______ _____ _____    ______ ____
ROOT
ATOM      1  CA  TYR A   1      14.902  14.146  12.643  0.00  0.00    +0.149 C 
ENDROOT
BRANCH   1   2
ATOM      2  C   TYR A   1      13.476  14.104  12.092  0.00  0.00    +0.239 C 
ATOM      3  O   TYR A   1      12.502  14.098  12.858  0.00  0.00    -0.274 OA
ATOM      4  N   ILE A   2      13.346  14.052  10.770  0.00  0.00    -0.298 N 
ATOM      5  H   ILE A   2      14.188  14.019  10.161  0.00  0.00    +0.150 HD
BRANCH   4   6
ATOM      6  CA  ILE A   2      12.011  14.042  10.181  0.00  0.00    +0.137 C 
BRANCH   6   7
ATOM      7  C   ILE A   2      11.673  12.818   9.356  0.00  0.00    +0.227 C 
ATOM      8  O   ILE A   2      12.531  12.136   8.774  0.00  0.00    -0.286 OA
ENDBRANCH   6   7
BRANCH   6   9
ATOM      9  CB  ILE A   2      11.724  15.272   9.289  0.00  0.00    +0.026 C 
ATOM     10  CG2 ILE A   2      11.810  16.555  10.099  0.00  0.00    +0.002 C 
BRANCH   9  11
ATOM     11  CG1 ILE A   2      12.685  15.294   8.103  0.00  0.00    +0.002 C 
ATOM     12  CD1 ILE A   2      12.327  16.317   7.055  0.00  0.00    +0.000 C 
ENDBRANCH   9  11
ENDBRANCH   6   9
ENDBRANCH   4   6
ENDBRANCH   1   2
BRANCH   1  13
ATOM     13  N   TYR A   1      15.027  15.135  13.719  0.00  0.00    -0.238 NA
ATOM     14  H   TYR A   1      15.234  14.807  14.684  0.00  0.00    +0.142 HD
ENDBRANCH   1  13
BRANCH   1  15
ATOM     15  CB  TYR A   1      15.300  12.770  13.175  0.00  0.00    +0.053 C 
BRANCH  15  16
ATOM     16  CG  TYR A   1      15.137  11.580  12.246  0.00  0.00    -0.020 A 
ATOM     17  CD2 TYR A   1      13.942  10.856  12.224  0.00  0.00    -0.001 A 
ATOM     18  CE2 TYR A   1      13.788   9.753  11.423  0.00  0.00    +0.036 A 
ATOM     19  CZ  TYR A   1      14.842   9.319  10.643  0.00  0.00    +0.134 A 
ATOM     20  CE1 TYR A   1      16.054   9.996  10.646  0.00  0.00    +0.036 A 
ATOM     21  CD1 TYR A   1      16.192  11.126  11.453  0.00  0.00    -0.001 A 
BRANCH  19  22
ATOM     22  OH  TYR A   1      14.659   8.199   9.869  0.00  0.00    -0.506 OA
ATOM     23  HH  TYR A   1      15.491   8.006   9.368  0.00  0.00    +0.292 HD
ENDBRANCH  19  22
ENDBRANCH  15  16
ENDBRANCH   1  15
TORSDOF 9
REMARK  Name = ../refined-set-2016/3ao1/3ao1_pocket.pdb
REMARK  119 active torsions:
REMARK  status: ('A' for Active; 'I' for Inactive)
REMARK    1  A    between atoms: _1  and  _3
REMARK    2  A    between atoms: _3  and  _4
REMARK    3  A    between atoms: _3  and  _6
REMARK    4  A    between atoms: _6  and  _7
REMARK    5  A    between atoms: _12  and  _13
REMARK    6  A    between atoms: _15  and  _17
REMARK    7  A    between atoms: _17  and  _18
REMARK    8  A    between atoms: _17  and  _20
REMARK    9  A    between atoms: _20  and  _21
REMARK   10  A    between atoms: _24  and  _26
REMARK   11  A    between atoms: _26  and  _27
REMARK   12  A    between atoms: _26  and  _29
REMARK   13  A    between atoms: _29  and  _30
REMARK   14  A    between atoms: _40  and  _42
REMARK   15  A    between atoms: _42  and  _43
REMARK   16  A    between atoms: _42  and  _45
REMARK   17  A    between atoms: _48  and  _50
REMARK   18  A    between atoms: _50  and  _51
REMARK   19  A    between atoms: _50  and  _53
REMARK   20  A    between atoms: _53  and  _54
REMARK   21  A    between atoms: _60  and  _62
REMARK   22  A    between atoms: _62  and  _63
REMARK   23  A    between atoms: _62  and  _65
REMARK   24  A    between atoms: _65  and  _66
REMARK   25  A    between atoms: _69  and  _71
REMARK   26  A    between atoms: _71  and  _72
REMARK   27  A    between atoms: _71  and  _74
REMARK   28  A    between atoms: _74  and  _75
REMARK   29  A    between atoms: _80  and  _82
REMARK   30  A    between atoms: _82  and  _83
REMARK   31  A    between atoms: _82  and  _85
REMARK   32  A    between atoms: _85  and  _86
REMARK   33  A    between atoms: _91  and  _93
REMARK   34  A    between atoms: _93  and  _94
REMARK   35  A    between atoms: _93  and  _96
REMARK   36  A    between atoms: _96  and  _97
REMARK   37  A    between atoms: _102  and  _104
REMARK   38  A    between atoms: _104  and  _105
REMARK   39  A    between atoms: _104  and  _107
REMARK   40  A    between atoms: _107  and  _108
REMARK   41  A    between atoms: _108  and  _109
REMARK   42  A    between atoms: _109  and  _110
REMARK   43  A    between atoms: _110  and  _111
REMARK   44  A    between atoms: _115  and  _117
REMARK   45  A    between atoms: _117  and  _118
REMARK   46  A    between atoms: _117  and  _120
REMARK   47  A    between atoms: _120  and  _121
REMARK   48  A    between atoms: _123  and  _125
REMARK   49  A    between atoms: _125  and  _126
REMARK   50  A    between atoms: _129  and  _131
REMARK   51  A    between atoms: _131  and  _132
REMARK   52  A    between atoms: _134  and  _136
REMARK   53  A    between atoms: _136  and  _137
REMARK   54  A    between atoms: _136  and  _139
REMARK   55  A    between atoms: _139  and  _140
REMARK   56  A    between atoms: _140  and  _141
REMARK   57  A    between atoms: _144  and  _146
REMARK   58  A    between atoms: _146  and  _147
REMARK   59  A    between atoms: _146  and  _149
REMARK   60  A    between atoms: _149  and  _150
REMARK   61  A    between atoms: _150  and  _151
REMARK   62  A    between atoms: _151  and  _152
REMARK   63  A    between atoms: _161  and  _163
REMARK   64  A    between atoms: _163  and  _164
REMARK   65  A    between atoms: _163  and  _166
REMARK   66  A    between atoms: _166  and  _167
REMARK   67  A    between atoms: _170  and  _172
REMARK   68  A    between atoms: _172  and  _173
REMARK   69  A    between atoms: _172  and  _175
REMARK   70  A    between atoms: _178  and  _180
REMARK   71  A    between atoms: _180  and  _181
REMARK   72  A    between atoms: _180  and  _183
REMARK   73  A    between atoms: _183  and  _184
REMARK   74  A    between atoms: _187  and  _189
REMARK   75  A    between atoms: _189  and  _190
REMARK   76  A    between atoms: _189  and  _192
REMARK   77  A    between atoms: _192  and  _193
REMARK   78  A    between atoms: _193  and  _194
REMARK   79  A    between atoms: _194  and  _195
REMARK   80  A    between atoms: _195  and  _196
REMARK   81  A    between atoms: _200  and  _202
REMARK   82  A    between atoms: _202  and  _203
REMARK   83  A    between atoms: _202  and  _205
REMARK   84  A    between atoms: _205  and  _206
REMARK   85  A    between atoms: _209  and  _211
REMARK   86  A    between atoms: _211  and  _212
REMARK   87  A    between atoms: _215  and  _217
REMARK   88  A    between atoms: _217  and  _218
REMARK   89  A    between atoms: _220  and  _222
REMARK   90  A    between atoms: _222  and  _223
REMARK   91  A    between atoms: _222  and  _225
REMARK   92  A    between atoms: _225  and  _226
REMARK   93  A    between atoms: _226  and  _227
REMARK   94  A    between atoms: _227  and  _228
REMARK   95  A    between atoms: _237  and  _239
REMARK   96  A    between atoms: _239  and  _240
REMARK   97  A    between atoms: _239  and  _242
REMARK   98  A    between atoms: _242  and  _243
REMARK   99  A    between atoms: _254  and  _255
REMARK  100  A    between atoms: _260  and  _262
REMARK  101  A    between atoms: _262  and  _263
REMARK  102  A    between atoms: _262  and  _265
REMARK  103  A    between atoms: _268  and  _270
REMARK  104  A    between atoms: _270  and  _271
REMARK  105  A    between atoms: _270  and  _273
REMARK  106  A    between atoms: _273  and  _274
REMARK  107  A    between atoms: _277  and  _279
REMARK  108  A    between atoms: _279  and  _280
REMARK  109  A    between atoms: _279  and  _282
REMARK  110  A    between atoms: _285  and  _287
REMARK  111  A    between atoms: _287  and  _288
REMARK  112  A    between atoms: _287  and  _290
REMARK  113  A    between atoms: _290  and  _291
REMARK  114  A    between atoms: _294  and  _296
REMARK  115  A    between atoms: _296  and  _297
REMARK  116  A    between atoms: _300  and  _302
REMARK  117  A    between atoms: _302  and  _303
REMARK  118  A    between atoms: _302  and  _305
REMARK  119  A    between atoms: _305  and  _306
REMARK                            x       y       z     vdW  Elec       q    Type
REMARK                         _______ _______ _______ _____ _____    ______ ____
ROOT
ATOM      1  CG  TRP A   1      11.826   5.920  14.214  0.00  0.00    -0.002 A 
ATOM      2  CD2 TRP A   1      13.251   6.018  14.307  0.00  0.00    +0.013 A 
ATOM      3  CE3 TRP A   1      14.166   5.876  15.359  0.00  0.00    +0.001 A 
ATOM      4  CZ3 TRP A   1      15.512   6.039  15.095  0.00  0.00    +0.000 A 
ATOM      5  CH2 TRP A   1      15.963   6.333  13.808  0.00  0.00    +0.001 A 
ATOM      6  CZ2 TRP A   1      15.095   6.471  12.761  0.00  0.00    +0.017 A 
ATOM      7  CE2 TRP A   1      13.733   6.312  13.027  0.00  0.00    +0.056 A 
ATOM      8  NE1 TRP A   1      12.652   6.391  12.190  0.00  0.00    -0.352 N 
ATOM      9  HE1 TRP A   1      12.691   6.596  11.171  0.00  0.00    +0.166 HD
ATOM     10  CD1 TRP A   1      11.509   6.156  12.912  0.00  0.00    +0.068 A 
ENDROOT
BRANCH   1  11
ATOM     11  CB  TRP A   1      10.892   5.616  15.322  0.00  0.00    +0.053 C 
BRANCH  11  12
ATOM     12  CA  TRP A   1      10.747   4.120  15.591  0.00  0.00    +0.137 C 
BRANCH  12  13
ATOM     13  N   TRP A   1      10.112   3.447  14.451  0.00  0.00    -0.239 NA
ATOM     14  H   TRP A   1       9.084   3.542  14.324  0.00  0.00    +0.142 HD
ENDBRANCH  12  13
BRANCH  12  15
ATOM     15  C   TRP A   1       9.885   3.919  16.825  0.00  0.00    +0.224 C 
ATOM     16  O   TRP A   1       8.703   3.622  16.709  0.00  0.00    -0.287 OA
ENDBRANCH  12  15
ENDBRANCH  11  12
ENDBRANCH   1  11
TORSDOF 4
REMARK  Name = ../refined-set-2016/3ao1/3ao1_pocket.pdb
REMARK  119 active torsions:
REMARK  status: ('A' for Active; 'I' for Inactive)
REMARK    1  A    between atoms: _1  and  _3
REMARK    2  A    between atoms: _3  and  _4
REMARK    3  A    between atoms: _3  and  _6
REMARK    4  A    between atoms: _6  and  _7
REMARK    5  A    between atoms: _12  and  _13
REMARK    6  A    between atoms: _15  and  _17
REMARK    7  A    between atoms: _17  and  _18
REMARK    8  A    between atoms: _17  and  _20
REMARK    9  A    between atoms: _20  and  _21
REMARK   10  A    between atoms: _24  and  _26
REMARK   11  A    between atoms: _26  and  _27
REMARK   12  A    between atoms: _26  and  _29
REMARK   13  A    between atoms: _29  and  _30
REMARK   14  A    between atoms: _40  and  _42
REMARK   15  A    between atoms: _42  and  _43
REMARK   16  A    between atoms: _42  and  _45
REMARK   17  A    between atoms: _48  and  _50
REMARK   18  A    between atoms: _50  and  _51
REMARK   19  A    between atoms: _50  and  _53
REMARK   20  A    between atoms: _53  and  _54
REMARK   21  A    between atoms: _60  and  _62
REMARK   22  A    between atoms: _62  and  _63
REMARK   23  A    between atoms: _62  and  _65
REMARK   24  A    between atoms: _65  and  _66
REMARK   25  A    between atoms: _69  and  _71
REMARK   26  A    between atoms: _71  and  _72
REMARK   27  A    between atoms: _71  and  _74
REMARK   28  A    between atoms: _74  and  _75
REMARK   29  A    between atoms: _80  and  _82
REMARK   30  A    between atoms: _82  and  _83
REMARK   31  A    between atoms: _82  and  _85
REMARK   32  A    between atoms: _85  and  _86
REMARK   33  A    between atoms: _91  and  _93
REMARK   34  A    between atoms: _93  and  _94
REMARK   35  A    between atoms: _93  and  _96
REMARK   36  A    between atoms: _96  and  _97
REMARK   37  A    between atoms: _102  and  _104
REMARK   38  A    between atoms: _104  and  _105
REMARK   39  A    between atoms: _104  and  _107
REMARK   40  A    between atoms: _107  and  _108
REMARK   41  A    between atoms: _108  and  _109
REMARK   42  A    between atoms: _109  and  _110
REMARK   43  A    between atoms: _110  and  _111
REMARK   44  A    between atoms: _115  and  _117
REMARK   45  A    between atoms: _117  and  _118
REMARK   46  A    between atoms: _117  and  _120
REMARK   47  A    between atoms: _120  and  _121
REMARK   48  A    between atoms: _123  and  _125
REMARK   49  A    between atoms: _125  and  _126
REMARK   50  A    between atoms: _129  and  _131
REMARK   51  A    between atoms: _131  and  _132
REMARK   52  A    between atoms: _134  and  _136
REMARK   53  A    between atoms: _136  and  _137
REMARK   54  A    between atoms: _136  and  _139
REMARK   55  A    between atoms: _139  and  _140
REMARK   56  A    between atoms: _140  and  _141
REMARK   57  A    between atoms: _144  and  _146
REMARK   58  A    between atoms: _146  and  _147
REMARK   59  A    between atoms: _146  and  _149
REMARK   60  A    between atoms: _149  and  _150
REMARK   61  A    between atoms: _150  and  _151
REMARK   62  A    between atoms: _151  and  _152
REMARK   63  A    between atoms: _161  and  _163
REMARK   64  A    between atoms: _163  and  _164
REMARK   65  A    between atoms: _163  and  _166
REMARK   66  A    between atoms: _166  and  _167
REMARK   67  A    between atoms: _170  and  _172
REMARK   68  A    between atoms: _172  and  _173
REMARK   69  A    between atoms: _172  and  _175
REMARK   70  A    between atoms: _178  and  _180
REMARK   71  A    between atoms: _180  and  _181
REMARK   72  A    between atoms: _180  and  _183
REMARK   73  A    between atoms: _183  and  _184
REMARK   74  A    between atoms: _187  and  _189
REMARK   75  A    between atoms: _189  and  _190
REMARK   76  A    between atoms: _189  and  _192
REMARK   77  A    between atoms: _192  and  _193
REMARK   78  A    between atoms: _193  and  _194
REMARK   79  A    between atoms: _194  and  _195
REMARK   80  A    between atoms: _195  and  _196
REMARK   81  A    between atoms: _200  and  _202
REMARK   82  A    between atoms: _202  and  _203
REMARK   83  A    between atoms: _202  and  _205
REMARK   84  A    between atoms: _205  and  _206
REMARK   85  A    between atoms: _209  and  _211
REMARK   86  A    between atoms: _211  and  _212
REMARK   87  A    between atoms: _215  and  _217
REMARK   88  A    between atoms: _217  and  _218
REMARK   89  A    between atoms: _220  and  _222
REMARK   90  A    between atoms: _222  and  _223
REMARK   91  A    between atoms: _222  and  _225
REMARK   92  A    between atoms: _225  and  _226
REMARK   93  A    between atoms: _226  and  _227
REMARK   94  A    between atoms: _227  and  _228
REMARK   95  A    between atoms: _237  and  _239
REMARK   96  A    between atoms: _239  and  _240
REMARK   97  A    between atoms: _239  and  _242
REMARK   98  A    between atoms: _242  and  _243
REMARK   99  A    between atoms: _254  and  _255
REMARK  100  A    between atoms: _260  and  _262
REMARK  101  A    between atoms: _262  and  _263
REMARK  102  A    between atoms: _262  and  _265
REMARK  103  A    between atoms: _268  and  _270
REMARK  104  A    between atoms: _270  and  _271
REMARK  105  A    between atoms: _270  and  _273
REMARK  106  A    between atoms: _273  and  _274
REMARK  107  A    between atoms: _277  and  _279
REMARK  108  A    between atoms: _279  and  _280
REMARK  109  A    between atoms: _279  and  _282
REMARK  110  A    between atoms: _285  and  _287
REMARK  111  A    between atoms: _287  and  _288
REMARK  112  A    between atoms: _287  and  _290
REMARK  113  A    between atoms: _290  and  _291
REMARK  114  A    between atoms: _294  and  _296
REMARK  115  A    between atoms: _296  and  _297
REMARK  116  A    between atoms: _300  and  _302
REMARK  117  A    between atoms: _302  and  _303
REMARK  118  A    between atoms: _302  and  _305
REMARK  119  A    between atoms: _305  and  _306
REMARK                            x       y       z     vdW  Elec       q    Type
REMARK                         _______ _______ _______ _____ _____    ______ ____
ROOT
ATOM      1  CA  HIS A   4      17.517  17.513   6.220  0.00  0.00    +0.155 C 
ENDROOT
BRANCH   1   2
ATOM      2  C   HIS A   4      18.154  16.606   7.278  0.00  0.00    +0.241 C 
ATOM      3  O   HIS A   4      18.826  17.082   8.179  0.00  0.00    -0.273 OA
ATOM      4  N   ASN A   5      17.922  15.300   7.181  0.00  0.00    -0.297 N 
ATOM      5  H   ASN A   5      17.395  14.938   6.361  0.00  0.00    +0.150 HD
BRANCH   4   6
ATOM      6  CA  ASN A   5      18.392  14.359   8.202  0.00  0.00    +0.158 C 
BRANCH   6   7
ATOM      7  C   ASN A   5      19.910  14.115   8.181  0.00  0.00    +0.241 C 
ATOM      8  O   ASN A   5      20.477  13.653   9.168  0.00  0.00    -0.273 OA
ATOM      9  N   HIS A   6      20.552  14.408   7.048  0.00  0.00    -0.297 N 
ATOM     10  H   HIS A   6      20.009  14.793   6.249  0.00  0.00    +0.150 HD
BRANCH   9  11
ATOM     11  CA  HIS A   6      21.999  14.206   6.890  0.00  0.00    +0.155 C 
BRANCH  11  12
ATOM     12  C   HIS A   6      22.812  15.464   7.173  0.00  0.00    +0.241 C 
ATOM     13  N   LYS A   7      22.134  16.596   7.293  0.00  0.00    -0.298 N 
ATOM     14  H   LYS A   7      21.094  16.567   7.306  0.00  0.00    +0.150 HD
ATOM     15  O   HIS A   6      24.044  15.411   7.266  0.00  0.00    -0.273 OA
BRANCH  13  16
ATOM     16  CA  LYS A   7      22.814  17.884   7.408  0.00  0.00    +0.137 C 
BRANCH  16  17
ATOM     17  C   LYS A   7      23.420  18.102   8.784  0.00  0.00    +0.227 C 
ATOM     18  O   LYS A   7      22.744  17.992   9.803  0.00  0.00    -0.286 OA
ENDBRANCH  16  17
BRANCH  16  19
ATOM     19  CB  LYS A   7      21.850  19.033   7.085  0.00  0.00    +0.028 C 
BRANCH  19  20
ATOM     20  CG  LYS A   7      22.458  20.421   7.254  0.00  0.00    -0.000 C 
BRANCH  20  21
ATOM     21  CD  LYS A   7      21.427  21.530   7.044  0.00  0.00    -0.024 C 
BRANCH  21  22
ATOM     22  CE  LYS A   7      22.064  22.915   7.273  0.00  0.00    -0.086 C 
BRANCH  22  23
ATOM     23  NZ  LYS A   7      21.077  24.026   7.506  0.00  0.00    +0.380 N 
ATOM     24  HZ1 LYS A   7      20.508  23.811   8.350  0.00  0.00    -0.089 HD
ATOM     25  HZ2 LYS A   7      21.590  24.919   7.650  0.00  0.00    -0.089 HD
ATOM     26  HZ3 LYS A   7      20.453  24.113   6.679  0.00  0.00    -0.089 HD
ENDBRANCH  22  23
ENDBRANCH  21  22
ENDBRANCH  20  21
ENDBRANCH  19  20
ENDBRANCH  16  19
ENDBRANCH  13  16
ENDBRANCH  11  12
BRANCH  11  27
ATOM     27  CB  HIS A   6      22.341  13.739   5.465  0.00  0.00    +0.076 C 
BRANCH  27  28
ATOM     28  CG  HIS A   6      22.087  12.286   5.211  0.00  0.00    +0.082 A 
ATOM     29  CD2 HIS A   6      22.907  11.212   5.303  0.00  0.00    +0.115 A 
ATOM     30  NE2 HIS A   6      22.180  10.114   4.916  0.00  0.00    -0.221 NA
ATOM     31  CE1 HIS A   6      20.958  10.498   4.589  0.00  0.00    +0.199 A 
ATOM     32  ND1 HIS A   6      20.883  11.811   4.738  0.00  0.00    -0.227 NA
ENDBRANCH  27  28
ENDBRANCH  11  27
ENDBRANCH   9  11
ENDBRANCH   6   7
BRANCH   6  33
ATOM     33  CB  ASN A   5      17.679  13.020   8.044  0.00  0.00    +0.114 C 
BRANCH  33  34
ATOM     34  CG  ASN A   5      16.215  13.077   8.471  0.00  0.00    +0.222 C 
ATOM     35  OD1 ASN A   5      15.814  13.961   9.226  0.00  0.00    -0.275 OA
ATOM     36  ND2 ASN A   5      15.425  12.105   8.017  0.00  0.00    -0.329 N 
ATOM     37 HD21 ASN A   5      14.425  12.073   8.300  0.00  0.00    +0.145 HD
ATOM     38 HD22 ASN A   5      15.809  11.378   7.380  0.00  0.00    +0.145 HD
ENDBRANCH  33  34
ENDBRANCH   6  33
ENDBRANCH   4   6
ENDBRANCH   1   2
BRANCH   1  41
ATOM     39  C   ILE A   3      18.978  16.846   4.427  0.00  0.00    +0.241 C 
ATOM     40  O   ILE A   3      19.965  17.021   5.159  0.00  0.00    -0.273 OA
ATOM     41  N   HIS A   4      17.736  17.056   4.854  0.00  0.00    -0.297 N 
ATOM     42  H   HIS A   4      16.928  16.895   4.219  0.00  0.00    +0.150 HD
BRANCH  39  43
ATOM     43  CA  ILE A   3      19.128  16.333   2.975  0.00  0.00    +0.149 C 
BRANCH  43  46
ATOM     44  C   PHE A   2      18.338  14.080   3.385  0.00  0.00    +0.241 C 
ATOM     45  O   PHE A   2      19.169  13.924   4.281  0.00  0.00    -0.273 OA
ATOM     46  N   ILE A   3      18.228  15.216   2.712  0.00  0.00    -0.297 N 
ATOM     47  H   ILE A   3      17.490  15.312   1.986  0.00  0.00    +0.150 HD
BRANCH  44  48
ATOM     48  CA  PHE A   2      17.342  12.957   3.022  0.00  0.00    +0.153 C 
BRANCH  48  51
ATOM     49  C   VAL A   1      15.435  14.052   4.104  0.00  0.00    +0.238 C 
ATOM     50  O   VAL A   1      16.037  14.223   5.158  0.00  0.00    -0.274 OA
ATOM     51  N   PHE A   2      15.968  13.448   3.044  0.00  0.00    -0.297 N 
ATOM     52  H   PHE A   2      15.380  13.321   2.196  0.00  0.00    +0.150 HD
BRANCH  49  53
ATOM     53  CA  VAL A   1      13.993  14.542   3.934  0.00  0.00    +0.145 C 
BRANCH  53  54
ATOM     54  CB  VAL A   1      13.008  13.320   3.980  0.00  0.00    +0.025 C 
ATOM     55  CG2 VAL A   1      13.327  12.367   5.156  0.00  0.00    +0.002 C 
ATOM     56  CG1 VAL A   1      11.543  13.797   4.051  0.00  0.00    +0.002 C 
ENDBRANCH  53  54
BRANCH  53  57
ATOM     57  N   VAL A   1      13.879  15.296   2.684  0.00  0.00    -0.238 NA
ATOM     58  H   VAL A   1      13.178  14.993   1.978  0.00  0.00    +0.142 HD
ENDBRANCH  53  57
ENDBRANCH  49  53
ENDBRANCH  48  51
BRANCH  48  59
ATOM     59  CB  PHE A   2      17.640  12.359   1.635  0.00  0.00    +0.055 C 
BRANCH  59  60
ATOM     60  CG  PHE A   2      19.048  11.860   1.463  0.00  0.00    -0.020 A 
ATOM     61  CD2 PHE A   2      20.109  12.745   1.391  0.00  0.00    -0.004 A 
ATOM     62  CE2 PHE A   2      21.409  12.285   1.227  0.00  0.00    -0.000 A 
ATOM     63  CZ  PHE A   2      21.656  10.935   1.114  0.00  0.00    -0.000 A 
ATOM     64  CE1 PHE A   2      20.592  10.032   1.177  0.00  0.00    -0.000 A 
ATOM     65  CD1 PHE A   2      19.303  10.500   1.350  0.00  0.00    -0.004 A 
ENDBRANCH  59  60
ENDBRANCH  48  59
ENDBRANCH  44  48
ENDBRANCH  43  46
BRANCH  43  66
ATOM     66  CB  ILE A   3      18.904  17.462   1.952  0.00  0.00    +0.027 C 
ATOM     67  CG2 ILE A   3      19.554  18.764   2.402  0.00  0.00    +0.002 C 
BRANCH  66  68
ATOM     68  CG1 ILE A   3      19.472  17.040   0.593  0.00  0.00    +0.002 C 
ATOM     69  CD1 ILE A   3      19.220  18.038  -0.508  0.00  0.00    +0.000 C 
ENDBRANCH  66  68
ENDBRANCH  43  66
ENDBRANCH  39  43
ENDBRANCH   1  41
BRANCH   1  70
ATOM     70  CB  HIS A   4      16.035  17.674   6.538  0.00  0.00    +0.076 C 
BRANCH  70  71
ATOM     71  CG  HIS A   4      15.793  17.974   7.981  0.00  0.00    +0.082 A 
ATOM     72  CD2 HIS A   4      15.550  17.156   9.034  0.00  0.00    +0.115 A 
ATOM     73  NE2 HIS A   4      15.460  17.952  10.149  0.00  0.00    -0.221 NA
ATOM     74  CE1 HIS A   4      15.653  19.210   9.796  0.00  0.00    +0.199 A 
ATOM     75  ND1 HIS A   4      15.874  19.249   8.493  0.00  0.00    -0.227 NA
ENDBRANCH  70  71
ENDBRANCH   1  70
TORSDOF 30
REMARK  Name = ../refined-set-2016/3ao1/3ao1_pocket.pdb
REMARK  119 active torsions:
REMARK  status: ('A' for Active; 'I' for Inactive)
REMARK    1  A    between atoms: _1  and  _3
REMARK    2  A    between atoms: _3  and  _4
REMARK    3  A    between atoms: _3  and  _6
REMARK    4  A    between atoms: _6  and  _7
REMARK    5  A    between atoms: _12  and  _13
REMARK    6  A    between atoms: _15  and  _17
REMARK    7  A    between atoms: _17  and  _18
REMARK    8  A    between atoms: _17  and  _20
REMARK    9  A    between atoms: _20  and  _21
REMARK   10  A    between atoms: _24  and  _26
REMARK   11  A    between atoms: _26  and  _27
REMARK   12  A    between atoms: _26  and  _29
REMARK   13  A    between atoms: _29  and  _30
REMARK   14  A    between atoms: _40  and  _42
REMARK   15  A    between atoms: _42  and  _43
REMARK   16  A    between atoms: _42  and  _45
REMARK   17  A    between atoms: _48  and  _50
REMARK   18  A    between atoms: _50  and  _51
REMARK   19  A    between atoms: _50  and  _53
REMARK   20  A    between atoms: _53  and  _54
REMARK   21  A    between atoms: _60  and  _62
REMARK   22  A    between atoms: _62  and  _63
REMARK   23  A    between atoms: _62  and  _65
REMARK   24  A    between atoms: _65  and  _66
REMARK   25  A    between atoms: _69  and  _71
REMARK   26  A    between atoms: _71  and  _72
REMARK   27  A    between atoms: _71  and  _74
REMARK   28  A    between atoms: _74  and  _75
REMARK   29  A    between atoms: _80  and  _82
REMARK   30  A    between atoms: _82  and  _83
REMARK   31  A    between atoms: _82  and  _85
REMARK   32  A    between atoms: _85  and  _86
REMARK   33  A    between atoms: _91  and  _93
REMARK   34  A    between atoms: _93  and  _94
REMARK   35  A    between atoms: _93  and  _96
REMARK   36  A    between atoms: _96  and  _97
REMARK   37  A    between atoms: _102  and  _104
REMARK   38  A    between atoms: _104  and  _105
REMARK   39  A    between atoms: _104  and  _107
REMARK   40  A    between atoms: _107  and  _108
REMARK   41  A    between atoms: _108  and  _109
REMARK   42  A    between atoms: _109  and  _110
REMARK   43  A    between atoms: _110  and  _111
REMARK   44  A    between atoms: _115  and  _117
REMARK   45  A    between atoms: _117  and  _118
REMARK   46  A    between atoms: _117  and  _120
REMARK   47  A    between atoms: _120  and  _121
REMARK   48  A    between atoms: _123  and  _125
REMARK   49  A    between atoms: _125  and  _126
REMARK   50  A    between atoms: _129  and  _131
REMARK   51  A    between atoms: _131  and  _132
REMARK   52  A    between atoms: _134  and  _136
REMARK   53  A    between atoms: _136  and  _137
REMARK   54  A    between atoms: _136  and  _139
REMARK   55  A    between atoms: _139  and  _140
REMARK   56  A    between atoms: _140  and  _141
REMARK   57  A    between atoms: _144  and  _146
REMARK   58  A    between atoms: _146  and  _147
REMARK   59  A    between atoms: _146  and  _149
REMARK   60  A    between atoms: _149  and  _150
REMARK   61  A    between atoms: _150  and  _151
REMARK   62  A    between atoms: _151  and  _152
REMARK   63  A    between atoms: _161  and  _163
REMARK   64  A    between atoms: _163  and  _164
REMARK   65  A    between atoms: _163  and  _166
REMARK   66  A    between atoms: _166  and  _167
REMARK   67  A    between atoms: _170  and  _172
REMARK   68  A    between atoms: _172  and  _173
REMARK   69  A    between atoms: _172  and  _175
REMARK   70  A    between atoms: _178  and  _180
REMARK   71  A    between atoms: _180  and  _181
REMARK   72  A    between atoms: _180  and  _183
REMARK   73  A    between atoms: _183  and  _184
REMARK   74  A    between atoms: _187  and  _189
REMARK   75  A    between atoms: _189  and  _190
REMARK   76  A    between atoms: _189  and  _192
REMARK   77  A    between atoms: _192  and  _193
REMARK   78  A    between atoms: _193  and  _194
REMARK   79  A    between atoms: _194  and  _195
REMARK   80  A    between atoms: _195  and  _196
REMARK   81  A    between atoms: _200  and  _202
REMARK   82  A    between atoms: _202  and  _203
REMARK   83  A    between atoms: _202  and  _205
REMARK   84  A    between atoms: _205  and  _206
REMARK   85  A    between atoms: _209  and  _211
REMARK   86  A    between atoms: _211  and  _212
REMARK   87  A    between atoms: _215  and  _217
REMARK   88  A    between atoms: _217  and  _218
REMARK   89  A    between atoms: _220  and  _222
REMARK   90  A    between atoms: _222  and  _223
REMARK   91  A    between atoms: _222  and  _225
REMARK   92  A    between atoms: _225  and  _226
REMARK   93  A    between atoms: _226  and  _227
REMARK   94  A    between atoms: _227  and  _228
REMARK   95  A    between atoms: _237  and  _239
REMARK   96  A    between atoms: _239  and  _240
REMARK   97  A    between atoms: _239  and  _242
REMARK   98  A    between atoms: _242  and  _243
REMARK   99  A    between atoms: _254  and  _255
REMARK  100  A    between atoms: _260  and  _262
REMARK  101  A    between atoms: _262  and  _263
REMARK  102  A    between atoms: _262  and  _265
REMARK  103  A    between atoms: _268  and  _270
REMARK  104  A    between atoms: _270  and  _271
REMARK  105  A    between atoms: _270  and  _273
REMARK  106  A    between atoms: _273  and  _274
REMARK  107  A    between atoms: _277  and  _279
REMARK  108  A    between atoms: _279  and  _280
REMARK  109  A    between atoms: _279  and  _282
REMARK  110  A    between atoms: _285  and  _287
REMARK  111  A    between atoms: _287  and  _288
REMARK  112  A    between atoms: _287  and  _290
REMARK  113  A    between atoms: _290  and  _291
REMARK  114  A    between atoms: _294  and  _296
REMARK  115  A    between atoms: _296  and  _297
REMARK  116  A    between atoms: _300  and  _302
REMARK  117  A    between atoms: _302  and  _303
REMARK  118  A    between atoms: _302  and  _305
REMARK  119  A    between atoms: _305  and  _306
REMARK                            x       y       z     vdW  Elec       q    Type
REMARK                         _______ _______ _______ _____ _____    ______ ____
ROOT
ATOM      1  CA  ARG A   5      21.225  12.721  17.148  0.00  0.00    +0.149 C 
ENDROOT
BRANCH   1   4
ATOM      2  C   GLU A   4      22.475  11.212  15.716  0.00  0.00    +0.241 C 
ATOM      3  O   GLU A   4      22.590  10.372  16.608  0.00  0.00    -0.273 OA
ATOM      4  N   ARG A   5      21.832  12.359  15.878  0.00  0.00    -0.297 N 
ATOM      5  H   ARG A   5      21.760  13.017  15.076  0.00  0.00    +0.150 HD
BRANCH   2   6
ATOM      6  CA  GLU A   4      23.064  10.966  14.338  0.00  0.00    +0.149 C 
BRANCH   6   9
ATOM      7  C   GLY A   3      20.971  10.761  13.122  0.00  0.00    +0.243 C 
ATOM      8  O   GLY A   3      20.626   9.768  13.783  0.00  0.00    -0.273 OA
ATOM      9  N   GLU A   4      22.140  11.367  13.289  0.00  0.00    -0.297 N 
ATOM     10  H   GLU A   4      22.402  12.148  12.654  0.00  0.00    +0.150 HD
BRANCH   7  11
ATOM     11  CA  GLY A   3      20.077  11.344  12.044  0.00  0.00    +0.176 C 
BRANCH  11  14
ATOM     12  C   ALA A   2      19.493  13.437  13.147  0.00  0.00    +0.241 C 
ATOM     13  O   ALA A   2      19.107  12.861  14.159  0.00  0.00    -0.273 OA
ATOM     14  N   GLY A   3      19.984  12.794  12.091  0.00  0.00    -0.295 N 
ATOM     15  H   GLY A   3      20.312  13.346  11.273  0.00  0.00    +0.150 HD
BRANCH  12  16
ATOM     16  CA  ALA A   2      19.471  14.965  13.063  0.00  0.00    +0.149 C 
ATOM     17  CB  ALA A   2      18.198  15.474  12.347  0.00  0.00    +0.031 C 
BRANCH  16  20
ATOM     18  C   SER A   1      21.883  15.152  12.847  0.00  0.00    +0.241 C 
ATOM     19  O   SER A   1      22.063  14.560  13.912  0.00  0.00    -0.274 OA
ATOM     20  N   ALA A   2      20.670  15.433  12.376  0.00  0.00    -0.297 N 
ATOM     21  H   ALA A   2      20.576  15.994  11.506  0.00  0.00    +0.150 HD
BRANCH  18  22
ATOM     22  CA  SER A   1      23.066  15.574  11.977  0.00  0.00    +0.174 C 
BRANCH  22  23
ATOM     23  N   SER A   1      24.311  15.537  12.738  0.00  0.00    -0.236 NA
ATOM     24  H   SER A   1      24.891  14.674  12.720  0.00  0.00    +0.142 HD
ENDBRANCH  22  23
BRANCH  22  25
ATOM     25  CB  SER A   1      23.160  14.644  10.767  0.00  0.00    +0.163 C 
BRANCH  25  26
ATOM     26  OG  SER A   1      23.216  13.288  11.179  0.00  0.00    -0.380 OA
ATOM     27  H   SER A   1      23.276  12.704  10.382  0.00  0.00    +0.211 HD
ENDBRANCH  25  26
ENDBRANCH  22  25
ENDBRANCH  18  22
ENDBRANCH  16  20
ENDBRANCH  12  16
ENDBRANCH  11  14
ENDBRANCH   7  11
ENDBRANCH   6   9
BRANCH   6  28
ATOM     28  CB  GLU A   4      24.405  11.688  14.168  0.00  0.00    +0.041 C 
BRANCH  28  29
ATOM     29  CG  GLU A   4      25.166  11.170  12.970  0.00  0.00    +0.116 C 
BRANCH  29  30
ATOM     30  CD  GLU A   4      26.386  12.022  12.610  0.00  0.00    +0.365 C 
ATOM     31  OE2 GLU A   4      26.349  13.252  12.799  0.00  0.00    -0.246 OA
ATOM     32  OE1 GLU A   4      27.375  11.443  12.119  0.00  0.00    -0.246 OA
ENDBRANCH  29  30
ENDBRANCH  28  29
ENDBRANCH   6  28
ENDBRANCH   2   6
ENDBRANCH   1   4
BRANCH   1  33
ATOM     33  C   ARG A   5      20.084  11.793  17.574  0.00  0.00    +0.241 C 
ATOM     34  O   ARG A   5      19.996  11.425  18.735  0.00  0.00    -0.273 OA
ATOM     35  N   ILE A   6      19.216  11.391  16.654  0.00  0.00    -0.297 N 
ATOM     36  H   ILE A   6      19.316  11.689  15.663  0.00  0.00    +0.150 HD
BRANCH  35  37
ATOM     37  CA  ILE A   6      18.119  10.522  17.064  0.00  0.00    +0.149 C 
BRANCH  37  38
ATOM     38  C   ILE A   6      18.603   9.137  17.523  0.00  0.00    +0.241 C 
ATOM     39  O   ILE A   6      18.130   8.634  18.546  0.00  0.00    -0.273 OA
ATOM     40  N   VAL A   7      19.560   8.530  16.817  0.00  0.00    -0.297 N 
ATOM     41  H   VAL A   7      19.956   8.981  15.968  0.00  0.00    +0.150 HD
BRANCH  40  42
ATOM     42  CA  VAL A   7      20.043   7.220  17.257  0.00  0.00    +0.149 C 
BRANCH  42  43
ATOM     43  C   VAL A   7      20.792   7.307  18.581  0.00  0.00    +0.241 C 
ATOM     44  O   VAL A   7      20.675   6.415  19.408  0.00  0.00    -0.273 OA
ATOM     45  N   ASP A   8      21.546   8.384  18.782  0.00  0.00    -0.298 N 
ATOM     46  H   ASP A   8      21.650   9.088  18.024  0.00  0.00    +0.150 HD
BRANCH  45  47
ATOM     47  CA  ASP A   8      22.226   8.587  20.050  0.00  0.00    +0.148 C 
BRANCH  47  48
ATOM     48  C   ASP A   8      21.205   8.729  21.166  0.00  0.00    +0.227 C 
ATOM     49  O   ASP A   8      21.412   8.248  22.269  0.00  0.00    -0.286 OA
ENDBRANCH  47  48
BRANCH  47  50
ATOM     50  CB  ASP A   8      23.081   9.859  20.019  0.00  0.00    +0.142 C 
BRANCH  50  51
ATOM     51  CG  ASP A   8      23.839  10.083  21.324  0.00  0.00    +0.367 C 
ATOM     52  OD2 ASP A   8      23.745  11.192  21.896  0.00  0.00    -0.246 OA
ATOM     53  OD1 ASP A   8      24.523   9.140  21.783  0.00  0.00    -0.246 OA
ENDBRANCH  50  51
ENDBRANCH  47  50
ENDBRANCH  45  47
ENDBRANCH  42  43
BRANCH  42  54
ATOM     54  CB  VAL A   7      20.928   6.485  16.223  0.00  0.00    +0.027 C 
ATOM     55  CG2 VAL A   7      22.215   7.268  15.987  0.00  0.00    +0.002 C 
ATOM     56  CG1 VAL A   7      20.141   6.235  14.932  0.00  0.00    +0.002 C 
ENDBRANCH  42  54
ENDBRANCH  40  42
ENDBRANCH  37  38
BRANCH  37  57
ATOM     57  CB  ILE A   6      16.981  10.402  16.002  0.00  0.00    +0.027 C 
ATOM     58  CG2 ILE A   6      17.503   9.721  14.754  0.00  0.00    +0.002 C 
BRANCH  57  59
ATOM     59  CG1 ILE A   6      15.778   9.650  16.614  0.00  0.00    +0.002 C 
ATOM     60  CD1 ILE A   6      14.546   9.585  15.699  0.00  0.00    +0.000 C 
ENDBRANCH  57  59
ENDBRANCH  37  57
ENDBRANCH  35  37
ENDBRANCH   1  33
BRANCH   1  61
ATOM     61  CB  ARG A   5      20.763  14.178  17.139  0.00  0.00    +0.033 C 
BRANCH  61  62
ATOM     62  CG  ARG A   5      21.891  15.156  16.883  0.00  0.00    +0.045 C 
BRANCH  62  63
ATOM     63  CD  ARG A   5      21.494  16.616  17.187  0.00  0.00    +0.174 C 
BRANCH  63  64
ATOM     64  NE  ARG A   5      20.429  17.127  16.315  0.00  0.00    -0.265 N 
ATOM     65  HE  ARG A   5      19.445  16.916  16.578  0.00  0.00    +0.259 HD
ATOM     66  CZ  ARG A   5      20.636  17.847  15.203  0.00  0.00    +0.342 C 
ATOM     67  NH2 ARG A   5      21.873  18.151  14.814  0.00  0.00    -0.292 N 
ATOM     68 HH21 ARG A   5      22.688  17.829  15.374  0.00  0.00    +0.255 HD
ATOM     69 HH22 ARG A   5      22.024  18.710  13.950  0.00  0.00    +0.255 HD
ATOM     70  NH1 ARG A   5      19.600  18.278  14.480  0.00  0.00    -0.292 N 
ATOM     71 HH11 ARG A   5      18.629  18.056  14.779  0.00  0.00    +0.255 HD
ATOM     72 HH12 ARG A   5      19.764  18.836  13.618  0.00  0.00    +0.255 HD
ENDBRANCH  63  64
ENDBRANCH  62  63
ENDBRANCH  61  62
ENDBRANCH   1  61
TORSDOF 30
REMARK  Name = ../refined-set-2016/3ao1/3ao1_pocket.pdb
REMARK  119 active torsions:
REMARK  status: ('A' for Active; 'I' for Inactive)
REMARK    1  A    between atoms: _1  and  _3
REMARK    2  A    between atoms: _3  and  _4
REMARK    3  A    between atoms: _3  and  _6
REMARK    4  A    between atoms: _6  and  _7
REMARK    5  A    between atoms: _12  and  _13
REMARK    6  A    between atoms: _15  and  _17
REMARK    7  A    between atoms: _17  and  _18
REMARK    8  A    between atoms: _17  and  _20
REMARK    9  A    between atoms: _20  and  _21
REMARK   10  A    between atoms: _24  and  _26
REMARK   11  A    between atoms: _26  and  _27
REMARK   12  A    between atoms: _26  and  _29
REMARK   13  A    between atoms: _29  and  _30
REMARK   14  A    between atoms: _40  and  _42
REMARK   15  A    between atoms: _42  and  _43
REMARK   16  A    between atoms: _42  and  _45
REMARK   17  A    between atoms: _48  and  _50
REMARK   18  A    between atoms: _50  and  _51
REMARK   19  A    between atoms: _50  and  _53
REMARK   20  A    between atoms: _53  and  _54
REMARK   21  A    between atoms: _60  and  _62
REMARK   22  A    between atoms: _62  and  _63
REMARK   23  A    between atoms: _62  and  _65
REMARK   24  A    between atoms: _65  and  _66
REMARK   25  A    between atoms: _69  and  _71
REMARK   26  A    between atoms: _71  and  _72
REMARK   27  A    between atoms: _71  and  _74
REMARK   28  A    between atoms: _74  and  _75
REMARK   29  A    between atoms: _80  and  _82
REMARK   30  A    between atoms: _82  and  _83
REMARK   31  A    between atoms: _82  and  _85
REMARK   32  A    between atoms: _85  and  _86
REMARK   33  A    between atoms: _91  and  _93
REMARK   34  A    between atoms: _93  and  _94
REMARK   35  A    between atoms: _93  and  _96
REMARK   36  A    between atoms: _96  and  _97
REMARK   37  A    between atoms: _102  and  _104
REMARK   38  A    between atoms: _104  and  _105
REMARK   39  A    between atoms: _104  and  _107
REMARK   40  A    between atoms: _107  and  _108
REMARK   41  A    between atoms: _108  and  _109
REMARK   42  A    between atoms: _109  and  _110
REMARK   43  A    between atoms: _110  and  _111
REMARK   44  A    between atoms: _115  and  _117
REMARK   45  A    between atoms: _117  and  _118
REMARK   46  A    between atoms: _117  and  _120
REMARK   47  A    between atoms: _120  and  _121
REMARK   48  A    between atoms: _123  and  _125
REMARK   49  A    between atoms: _125  and  _126
REMARK   50  A    between atoms: _129  and  _131
REMARK   51  A    between atoms: _131  and  _132
REMARK   52  A    between atoms: _134  and  _136
REMARK   53  A    between atoms: _136  and  _137
REMARK   54  A    between atoms: _136  and  _139
REMARK   55  A    between atoms: _139  and  _140
REMARK   56  A    between atoms: _140  and  _141
REMARK   57  A    between atoms: _144  and  _146
REMARK   58  A    between atoms: _146  and  _147
REMARK   59  A    between atoms: _146  and  _149
REMARK   60  A    between atoms: _149  and  _150
REMARK   61  A    between atoms: _150  and  _151
REMARK   62  A    between atoms: _151  and  _152
REMARK   63  A    between atoms: _161  and  _163
REMARK   64  A    between atoms: _163  and  _164
REMARK   65  A    between atoms: _163  and  _166
REMARK   66  A    between atoms: _166  and  _167
REMARK   67  A    between atoms: _170  and  _172
REMARK   68  A    between atoms: _172  and  _173
REMARK   69  A    between atoms: _172  and  _175
REMARK   70  A    between atoms: _178  and  _180
REMARK   71  A    between atoms: _180  and  _181
REMARK   72  A    between atoms: _180  and  _183
REMARK   73  A    between atoms: _183  and  _184
REMARK   74  A    between atoms: _187  and  _189
REMARK   75  A    between atoms: _189  and  _190
REMARK   76  A    between atoms: _189  and  _192
REMARK   77  A    between atoms: _192  and  _193
REMARK   78  A    between atoms: _193  and  _194
REMARK   79  A    between atoms: _194  and  _195
REMARK   80  A    between atoms: _195  and  _196
REMARK   81  A    between atoms: _200  and  _202
REMARK   82  A    between atoms: _202  and  _203
REMARK   83  A    between atoms: _202  and  _205
REMARK   84  A    between atoms: _205  and  _206
REMARK   85  A    between atoms: _209  and  _211
REMARK   86  A    between atoms: _211  and  _212
REMARK   87  A    between atoms: _215  and  _217
REMARK   88  A    between atoms: _217  and  _218
REMARK   89  A    between atoms: _220  and  _222
REMARK   90  A    between atoms: _222  and  _223
REMARK   91  A    between atoms: _222  and  _225
REMARK   92  A    between atoms: _225  and  _226
REMARK   93  A    between atoms: _226  and  _227
REMARK   94  A    between atoms: _227  and  _228
REMARK   95  A    between atoms: _237  and  _239
REMARK   96  A    between atoms: _239  and  _240
REMARK   97  A    between atoms: _239  and  _242
REMARK   98  A    between atoms: _242  and  _243
REMARK   99  A    between atoms: _254  and  _255
REMARK  100  A    between atoms: _260  and  _262
REMARK  101  A    between atoms: _262  and  _263
REMARK  102  A    between atoms: _262  and  _265
REMARK  103  A    between atoms: _268  and  _270
REMARK  104  A    between atoms: _270  and  _271
REMARK  105  A    between atoms: _270  and  _273
REMARK  106  A    between atoms: _273  and  _274
REMARK  107  A    between atoms: _277  and  _279
REMARK  108  A    between atoms: _279  and  _280
REMARK  109  A    between atoms: _279  and  _282
REMARK  110  A    between atoms: _285  and  _287
REMARK  111  A    between atoms: _287  and  _288
REMARK  112  A    between atoms: _287  and  _290
REMARK  113  A    between atoms: _290  and  _291
REMARK  114  A    between atoms: _294  and  _296
REMARK  115  A    between atoms: _296  and  _297
REMARK  116  A    between atoms: _300  and  _302
REMARK  117  A    between atoms: _302  and  _303
REMARK  118  A    between atoms: _302  and  _305
REMARK  119  A    between atoms: _305  and  _306
REMARK                            x       y       z     vdW  Elec       q    Type
REMARK                         _______ _______ _______ _____ _____    ______ ____
ROOT
ATOM      1  CA  ARG A   5      15.883   7.515   7.073  0.00  0.00    +0.149 C 
ENDROOT
BRANCH   1   2
ATOM      2  C   ARG A   5      16.993   6.765   7.836  0.00  0.00    +0.241 C 
ATOM      3  O   ARG A   5      17.072   6.821   9.069  0.00  0.00    -0.273 OA
ATOM      4  N   TRP A   6      17.823   6.047   7.095  0.00  0.00    -0.297 N 
ATOM      5  H   TRP A   6      17.691   6.043   6.063  0.00  0.00    +0.150 HD
BRANCH   4   6
ATOM      6  CA  TRP A   6      18.918   5.259   7.663  0.00  0.00    +0.153 C 
BRANCH   6   7
ATOM      7  C   TRP A   6      20.154   5.416   6.784  0.00  0.00    +0.244 C 
ATOM      8  N   PRO A   7      21.353   5.326   7.382  0.00  0.00    -0.272 N 
ATOM      9  CD  PRO A   7      21.590   5.073   8.818  0.00  0.00    +0.094 C 
ATOM     10  CG  PRO A   7      23.103   4.889   8.895  0.00  0.00    +0.024 C 
ATOM     11  CB  PRO A   7      23.663   5.661   7.730  0.00  0.00    +0.031 C 
ATOM     12  CA  PRO A   7      22.602   5.515   6.629  0.00  0.00    +0.152 C 
ATOM     13  O   TRP A   6      20.026   5.611   5.581  0.00  0.00    -0.273 OA
BRANCH  12  14
ATOM     14  C   PRO A   7      22.915   4.315   5.739  0.00  0.00    +0.241 C 
ATOM     15  O   PRO A   7      23.638   3.420   6.167  0.00  0.00    -0.273 OA
ATOM     16  N   VAL A   8      22.392   4.326   4.518  0.00  0.00    -0.298 N 
ATOM     17  H   VAL A   8      21.900   5.186   4.201  0.00  0.00    +0.150 HD
BRANCH  16  18
ATOM     18  CA  VAL A   8      22.471   3.198   3.599  0.00  0.00    +0.137 C 
BRANCH  18  19
ATOM     19  CB  VAL A   8      21.214   3.150   2.702  0.00  0.00    +0.026 C 
ATOM     20  CG2 VAL A   8      19.966   2.869   3.539  0.00  0.00    +0.002 C 
ATOM     21  CG1 VAL A   8      21.356   2.126   1.593  0.00  0.00    +0.002 C 
ENDBRANCH  18  19
BRANCH  18  22
ATOM     22  C   VAL A   8      23.742   3.336   2.760  0.00  0.00    +0.227 C 
ATOM     23  O   VAL A   8      23.962   4.352   2.111  0.00  0.00    -0.286 OA
ENDBRANCH  18  22
ENDBRANCH  16  18
ENDBRANCH  12  14
ENDBRANCH   6   7
BRANCH   6  24
ATOM     24  CB  TRP A   6      18.531   3.777   7.747  0.00  0.00    +0.057 C 
BRANCH  24  25
ATOM     25  CG  TRP A   6      17.381   3.513   8.666  0.00  0.00    -0.002 A 
ATOM     26  CD2 TRP A   6      17.429   3.441  10.094  0.00  0.00    +0.013 A 
ATOM     27  CE3 TRP A   6      18.457   3.570  11.036  0.00  0.00    +0.001 A 
ATOM     28  CZ3 TRP A   6      18.143   3.433  12.391  0.00  0.00    +0.000 A 
ATOM     29  CH2 TRP A   6      16.840   3.179  12.805  0.00  0.00    +0.001 A 
ATOM     30  CZ2 TRP A   6      15.808   3.054  11.903  0.00  0.00    +0.017 A 
ATOM     31  CE2 TRP A   6      16.121   3.185  10.547  0.00  0.00    +0.056 A 
ATOM     32  NE1 TRP A   6      15.310   3.110   9.443  0.00  0.00    -0.352 N 
ATOM     33  HE1 TRP A   6      14.286   2.927   9.457  0.00  0.00    +0.166 HD
ATOM     34  CD1 TRP A   6      16.068   3.316   8.316  0.00  0.00    +0.068 A 
ENDBRANCH  24  25
ENDBRANCH   6  24
ENDBRANCH   4   6
ENDBRANCH   1   2
BRANCH   1  37
ATOM     35  C   GLY A   4      16.561   9.140   5.355  0.00  0.00    +0.243 C 
ATOM     36  O   GLY A   4      16.638  10.062   6.155  0.00  0.00    -0.273 OA
ATOM     37  N   ARG A   5      16.266   7.888   5.709  0.00  0.00    -0.297 N 
ATOM     38  H   ARG A   5      16.310   7.143   4.984  0.00  0.00    +0.150 HD
BRANCH  35  39
ATOM     39  CA  GLY A   4      16.836   9.375   3.875  0.00  0.00    +0.176 C 
BRANCH  39  42
ATOM     40  C   ALA A   3      18.234   7.532   3.176  0.00  0.00    +0.241 C 
ATOM     41  O   ALA A   3      19.186   8.001   3.789  0.00  0.00    -0.273 OA
ATOM     42  N   GLY A   4      17.050   8.130   3.149  0.00  0.00    -0.295 N 
ATOM     43  H   GLY A   4      16.270   7.708   2.606  0.00  0.00    +0.150 HD
BRANCH  40  44
ATOM     44  CA  ALA A   3      18.352   6.197   2.444  0.00  0.00    +0.149 C 
ATOM     45  CB  ALA A   3      19.094   6.350   1.098  0.00  0.00    +0.031 C 
BRANCH  44  48
ATOM     46  C   LEU A   2      16.359   5.044   3.259  0.00  0.00    +0.241 C 
ATOM     47  O   LEU A   2      16.706   5.176   4.437  0.00  0.00    -0.273 OA
ATOM     48  N   ALA A   3      17.042   5.568   2.244  0.00  0.00    -0.297 N 
ATOM     49  H   ALA A   3      16.637   5.531   1.287  0.00  0.00    +0.150 HD
BRANCH  46  50
ATOM     50  CA  LEU A   2      15.096   4.254   2.890  0.00  0.00    +0.149 C 
BRANCH  50  53
ATOM     51  C   LYS A   1      13.817   6.224   2.300  0.00  0.00    +0.238 C 
ATOM     52  O   LYS A   1      14.045   6.761   3.406  0.00  0.00    -0.274 OA
ATOM     53  N   LEU A   2      14.265   5.019   1.974  0.00  0.00    -0.297 N 
ATOM     54  H   LEU A   2      14.018   4.615   1.048  0.00  0.00    +0.150 HD
BRANCH  51  55
ATOM     55  CA  LYS A   1      12.968   6.929   1.234  0.00  0.00    +0.145 C 
BRANCH  55  56
ATOM     56  N   LYS A   1      13.601   6.846  -0.087  0.00  0.00    -0.238 NA
ATOM     57  H   LYS A   1      13.116   6.340  -0.855  0.00  0.00    +0.142 HD
ENDBRANCH  55  56
BRANCH  55  58
ATOM     58  CB  LYS A   1      11.555   6.323   1.226  0.00  0.00    +0.026 C 
BRANCH  58  59
ATOM     59  CG  LYS A   1      10.523   7.091   0.423  0.00  0.00    -0.000 C 
BRANCH  59  60
ATOM     60  CD  LYS A   1       9.154   7.122   1.137  0.00  0.00    -0.024 C 
BRANCH  60  61
ATOM     61  CE  LYS A   1       8.470   5.778   1.143  0.00  0.00    -0.086 C 
BRANCH  61  62
ATOM     62  NZ  LYS A   1       7.223   5.769   1.983  0.00  0.00    +0.380 N 
ATOM     63  HZ1 LYS A   1       7.466   6.009   2.965  0.00  0.00    -0.089 HD
ATOM     64  HZ2 LYS A   1       6.793   4.823   1.952  0.00  0.00    -0.089 HD
ATOM     65  HZ3 LYS A   1       6.550   6.469   1.610  0.00  0.00    -0.089 HD
ENDBRANCH  61  62
ENDBRANCH  60  61
ENDBRANCH  59  60
ENDBRANCH  58  59
ENDBRANCH  55  58
ENDBRANCH  51  55
ENDBRANCH  50  53
BRANCH  50  66
ATOM     66  CB  LEU A   2      15.460   2.898   2.276  0.00  0.00    +0.029 C 
BRANCH  66  67
ATOM     67  CG  LEU A   2      16.231   1.943   3.189  0.00  0.00    +0.002 C 
ATOM     68  CD2 LEU A   2      15.375   1.593   4.422  0.00  0.00    +0.000 C 
ATOM     69  CD1 LEU A   2      16.695   0.690   2.471  0.00  0.00    +0.000 C 
ENDBRANCH  66  67
ENDBRANCH  50  66
ENDBRANCH  46  50
ENDBRANCH  44  48
ENDBRANCH  40  44
ENDBRANCH  39  42
ENDBRANCH  35  39
ENDBRANCH   1  37
BRANCH   1  70
ATOM     70  CB  ARG A   5      14.576   6.692   7.044  0.00  0.00    +0.033 C 
BRANCH  70  71
ATOM     71  CG  ARG A   5      13.329   7.581   6.747  0.00  0.00    +0.045 C 
BRANCH  71  72
ATOM     72  CD  ARG A   5      12.188   6.923   5.928  0.00  0.00    +0.174 C 
BRANCH  72  73
ATOM     73  NE  ARG A   5      11.122   7.903   5.683  0.00  0.00    -0.265 N 
ATOM     74  HE  ARG A   5      10.248   7.810   6.239  0.00  0.00    +0.259 HD
ATOM     75  CZ  ARG A   5      11.187   8.911   4.796  0.00  0.00    +0.342 C 
ATOM     76  NH2 ARG A   5      10.169   9.766   4.686  0.00  0.00    -0.292 N 
ATOM     77 HH21 ARG A   5       9.327   9.652   5.286  0.00  0.00    +0.255 HD
ATOM     78 HH22 ARG A   5      10.217  10.547   4.000  0.00  0.00    +0.255 HD
ATOM     79  NH1 ARG A   5      12.266   9.087   4.024  0.00  0.00    -0.292 N 
ATOM     80 HH11 ARG A   5      13.074   8.437   4.104  0.00  0.00    +0.255 HD
ATOM     81 HH12 ARG A   5      12.296   9.873   3.344  0.00  0.00    +0.255 HD
ENDBRANCH  72  73
ENDBRANCH  71  72
ENDBRANCH  70  71
ENDBRANCH   1  70
TORSDOF 29
REMARK  Name = ../refined-set-2016/3ao1/3ao1_pocket.pdb
REMARK  119 active torsions:
REMARK  status: ('A' for Active; 'I' for Inactive)
REMARK    1  A    between atoms: _1  and  _3
REMARK    2  A    between atoms: _3  and  _4
REMARK    3  A    between atoms: _3  and  _6
REMARK    4  A    between atoms: _6  and  _7
REMARK    5  A    between atoms: _12  and  _13
REMARK    6  A    between atoms: _15  and  _17
REMARK    7  A    between atoms: _17  and  _18
REMARK    8  A    between atoms: _17  and  _20
REMARK    9  A    between atoms: _20  and  _21
REMARK   10  A    between atoms: _24  and  _26
REMARK   11  A    between atoms: _26  and  _27
REMARK   12  A    between atoms: _26  and  _29
REMARK   13  A    between atoms: _29  and  _30
REMARK   14  A    between atoms: _40  and  _42
REMARK   15  A    between atoms: _42  and  _43
REMARK   16  A    between atoms: _42  and  _45
REMARK   17  A    between atoms: _48  and  _50
REMARK   18  A    between atoms: _50  and  _51
REMARK   19  A    between atoms: _50  and  _53
REMARK   20  A    between atoms: _53  and  _54
REMARK   21  A    between atoms: _60  and  _62
REMARK   22  A    between atoms: _62  and  _63
REMARK   23  A    between atoms: _62  and  _65
REMARK   24  A    between atoms: _65  and  _66
REMARK   25  A    between atoms: _69  and  _71
REMARK   26  A    between atoms: _71  and  _72
REMARK   27  A    between atoms: _71  and  _74
REMARK   28  A    between atoms: _74  and  _75
REMARK   29  A    between atoms: _80  and  _82
REMARK   30  A    between atoms: _82  and  _83
REMARK   31  A    between atoms: _82  and  _85
REMARK   32  A    between atoms: _85  and  _86
REMARK   33  A    between atoms: _91  and  _93
REMARK   34  A    between atoms: _93  and  _94
REMARK   35  A    between atoms: _93  and  _96
REMARK   36  A    between atoms: _96  and  _97
REMARK   37  A    between atoms: _102  and  _104
REMARK   38  A    between atoms: _104  and  _105
REMARK   39  A    between atoms: _104  and  _107
REMARK   40  A    between atoms: _107  and  _108
REMARK   41  A    between atoms: _108  and  _109
REMARK   42  A    between atoms: _109  and  _110
REMARK   43  A    between atoms: _110  and  _111
REMARK   44  A    between atoms: _115  and  _117
REMARK   45  A    between atoms: _117  and  _118
REMARK   46  A    between atoms: _117  and  _120
REMARK   47  A    between atoms: _120  and  _121
REMARK   48  A    between atoms: _123  and  _125
REMARK   49  A    between atoms: _125  and  _126
REMARK   50  A    between atoms: _129  and  _131
REMARK   51  A    between atoms: _131  and  _132
REMARK   52  A    between atoms: _134  and  _136
REMARK   53  A    between atoms: _136  and  _137
REMARK   54  A    between atoms: _136  and  _139
REMARK   55  A    between atoms: _139  and  _140
REMARK   56  A    between atoms: _140  and  _141
REMARK   57  A    between atoms: _144  and  _146
REMARK   58  A    between atoms: _146  and  _147
REMARK   59  A    between atoms: _146  and  _149
REMARK   60  A    between atoms: _149  and  _150
REMARK   61  A    between atoms: _150  and  _151
REMARK   62  A    between atoms: _151  and  _152
REMARK   63  A    between atoms: _161  and  _163
REMARK   64  A    between atoms: _163  and  _164
REMARK   65  A    between atoms: _163  and  _166
REMARK   66  A    between atoms: _166  and  _167
REMARK   67  A    between atoms: _170  and  _172
REMARK   68  A    between atoms: _172  and  _173
REMARK   69  A    between atoms: _172  and  _175
REMARK   70  A    between atoms: _178  and  _180
REMARK   71  A    between atoms: _180  and  _181
REMARK   72  A    between atoms: _180  and  _183
REMARK   73  A    between atoms: _183  and  _184
REMARK   74  A    between atoms: _187  and  _189
REMARK   75  A    between atoms: _189  and  _190
REMARK   76  A    between atoms: _189  and  _192
REMARK   77  A    between atoms: _192  and  _193
REMARK   78  A    between atoms: _193  and  _194
REMARK   79  A    between atoms: _194  and  _195
REMARK   80  A    between atoms: _195  and  _196
REMARK   81  A    between atoms: _200  and  _202
REMARK   82  A    between atoms: _202  and  _203
REMARK   83  A    between atoms: _202  and  _205
REMARK   84  A    between atoms: _205  and  _206
REMARK   85  A    between atoms: _209  and  _211
REMARK   86  A    between atoms: _211  and  _212
REMARK   87  A    between atoms: _215  and  _217
REMARK   88  A    between atoms: _217  and  _218
REMARK   89  A    between atoms: _220  and  _222
REMARK   90  A    between atoms: _222  and  _223
REMARK   91  A    between atoms: _222  and  _225
REMARK   92  A    between atoms: _225  and  _226
REMARK   93  A    between atoms: _226  and  _227
REMARK   94  A    between atoms: _227  and  _228
REMARK   95  A    between atoms: _237  and  _239
REMARK   96  A    between atoms: _239  and  _240
REMARK   97  A    between atoms: _239  and  _242
REMARK   98  A    between atoms: _242  and  _243
REMARK   99  A    between atoms: _254  and  _255
REMARK  100  A    between atoms: _260  and  _262
REMARK  101  A    between atoms: _262  and  _263
REMARK  102  A    between atoms: _262  and  _265
REMARK  103  A    between atoms: _268  and  _270
REMARK  104  A    between atoms: _270  and  _271
REMARK  105  A    between atoms: _270  and  _273
REMARK  106  A    between atoms: _273  and  _274
REMARK  107  A    between atoms: _277  and  _279
REMARK  108  A    between atoms: _279  and  _280
REMARK  109  A    between atoms: _279  and  _282
REMARK  110  A    between atoms: _285  and  _287
REMARK  111  A    between atoms: _287  and  _288
REMARK  112  A    between atoms: _287  and  _290
REMARK  113  A    between atoms: _290  and  _291
REMARK  114  A    between atoms: _294  and  _296
REMARK  115  A    between atoms: _296  and  _297
REMARK  116  A    between atoms: _300  and  _302
REMARK  117  A    between atoms: _302  and  _303
REMARK  118  A    between atoms: _302  and  _305
REMARK  119  A    between atoms: _305  and  _306
REMARK                            x       y       z     vdW  Elec       q    Type
REMARK                         _______ _______ _______ _____ _____    ______ ____
ROOT
ATOM      1  C   ILE A   1      20.250  -0.045  15.094  0.00  0.00    +0.238 C 
ATOM      2  N   VAL A   2      19.442   0.489  16.003  0.00  0.00    -0.298 N 
ATOM      3  H   VAL A   2      18.551   0.013  16.251  0.00  0.00    +0.150 HD
ATOM      4  O   ILE A   1      21.330   0.477  14.786  0.00  0.00    -0.274 OA
ENDROOT
BRANCH   1   5
ATOM      5  CA  ILE A   1      19.809  -1.375  14.471  0.00  0.00    +0.145 C 
BRANCH   5   6
ATOM      6  N   ILE A   1      19.362  -2.322  15.489  0.00  0.00    -0.238 NA
ATOM      7  H   ILE A   1      18.384  -2.676  15.476  0.00  0.00    +0.142 HD
ENDBRANCH   5   6
BRANCH   5   8
ATOM      8  CB  ILE A   1      18.768  -1.159  13.318  0.00  0.00    +0.025 C 
ATOM      9  CG2 ILE A   1      17.452  -0.539  13.831  0.00  0.00    +0.002 C 
BRANCH   8  10
ATOM     10  CG1 ILE A   1      19.366  -0.291  12.203  0.00  0.00    +0.002 C 
ATOM     11  CD1 ILE A   1      18.491  -0.227  10.936  0.00  0.00    +0.000 C 
ENDBRANCH   8  10
ENDBRANCH   5   8
ENDBRANCH   1   5
BRANCH   2  12
ATOM     12  CA  VAL A   2      19.807   1.748  16.655  0.00  0.00    +0.137 C 
BRANCH  12  13
ATOM     13  CB  VAL A   2      18.659   2.250  17.548  0.00  0.00    +0.026 C 
ATOM     14  CG2 VAL A   2      19.117   3.409  18.406  0.00  0.00    +0.002 C 
ATOM     15  CG1 VAL A   2      17.468   2.662  16.671  0.00  0.00    +0.002 C 
ENDBRANCH  12  13
BRANCH  12  16
ATOM     16  C   VAL A   2      21.125   1.611  17.434  0.00  0.00    +0.227 C 
ATOM     17  O   VAL A   2      22.000   2.485  17.366  0.00  0.00    -0.286 OA
ENDBRANCH  12  16
ENDBRANCH   2  12
TORSDOF 7
REMARK  Name = ../refined-set-2016/3ao1/3ao1_pocket.pdb
REMARK  119 active torsions:
REMARK  status: ('A' for Active; 'I' for Inactive)
REMARK    1  A    between atoms: _1  and  _3
REMARK    2  A    between atoms: _3  and  _4
REMARK    3  A    between atoms: _3  and  _6
REMARK    4  A    between atoms: _6  and  _7
REMARK    5  A    between atoms: _12  and  _13
REMARK    6  A    between atoms: _15  and  _17
REMARK    7  A    between atoms: _17  and  _18
REMARK    8  A    between atoms: _17  and  _20
REMARK    9  A    between atoms: _20  and  _21
REMARK   10  A    between atoms: _24  and  _26
REMARK   11  A    between atoms: _26  and  _27
REMARK   12  A    between atoms: _26  and  _29
REMARK   13  A    between atoms: _29  and  _30
REMARK   14  A    between atoms: _40  and  _42
REMARK   15  A    between atoms: _42  and  _43
REMARK   16  A    between atoms: _42  and  _45
REMARK   17  A    between atoms: _48  and  _50
REMARK   18  A    between atoms: _50  and  _51
REMARK   19  A    between atoms: _50  and  _53
REMARK   20  A    between atoms: _53  and  _54
REMARK   21  A    between atoms: _60  and  _62
REMARK   22  A    between atoms: _62  and  _63
REMARK   23  A    between atoms: _62  and  _65
REMARK   24  A    between atoms: _65  and  _66
REMARK   25  A    between atoms: _69  and  _71
REMARK   26  A    between atoms: _71  and  _72
REMARK   27  A    between atoms: _71  and  _74
REMARK   28  A    between atoms: _74  and  _75
REMARK   29  A    between atoms: _80  and  _82
REMARK   30  A    between atoms: _82  and  _83
REMARK   31  A    between atoms: _82  and  _85
REMARK   32  A    between atoms: _85  and  _86
REMARK   33  A    between atoms: _91  and  _93
REMARK   34  A    between atoms: _93  and  _94
REMARK   35  A    between atoms: _93  and  _96
REMARK   36  A    between atoms: _96  and  _97
REMARK   37  A    between atoms: _102  and  _104
REMARK   38  A    between atoms: _104  and  _105
REMARK   39  A    between atoms: _104  and  _107
REMARK   40  A    between atoms: _107  and  _108
REMARK   41  A    between atoms: _108  and  _109
REMARK   42  A    between atoms: _109  and  _110
REMARK   43  A    between atoms: _110  and  _111
REMARK   44  A    between atoms: _115  and  _117
REMARK   45  A    between atoms: _117  and  _118
REMARK   46  A    between atoms: _117  and  _120
REMARK   47  A    between atoms: _120  and  _121
REMARK   48  A    between atoms: _123  and  _125
REMARK   49  A    between atoms: _125  and  _126
REMARK   50  A    between atoms: _129  and  _131
REMARK   51  A    between atoms: _131  and  _132
REMARK   52  A    between atoms: _134  and  _136
REMARK   53  A    between atoms: _136  and  _137
REMARK   54  A    between atoms: _136  and  _139
REMARK   55  A    between atoms: _139  and  _140
REMARK   56  A    between atoms: _140  and  _141
REMARK   57  A    between atoms: _144  and  _146
REMARK   58  A    between atoms: _146  and  _147
REMARK   59  A    between atoms: _146  and  _149
REMARK   60  A    between atoms: _149  and  _150
REMARK   61  A    between atoms: _150  and  _151
REMARK   62  A    between atoms: _151  and  _152
REMARK   63  A    between atoms: _161  and  _163
REMARK   64  A    between atoms: _163  and  _164
REMARK   65  A    between atoms: _163  and  _166
REMARK   66  A    between atoms: _166  and  _167
REMARK   67  A    between atoms: _170  and  _172
REMARK   68  A    between atoms: _172  and  _173
REMARK   69  A    between atoms: _172  and  _175
REMARK   70  A    between atoms: _178  and  _180
REMARK   71  A    between atoms: _180  and  _181
REMARK   72  A    between atoms: _180  and  _183
REMARK   73  A    between atoms: _183  and  _184
REMARK   74  A    between atoms: _187  and  _189
REMARK   75  A    between atoms: _189  and  _190
REMARK   76  A    between atoms: _189  and  _192
REMARK   77  A    between atoms: _192  and  _193
REMARK   78  A    between atoms: _193  and  _194
REMARK   79  A    between atoms: _194  and  _195
REMARK   80  A    between atoms: _195  and  _196
REMARK   81  A    between atoms: _200  and  _202
REMARK   82  A    between atoms: _202  and  _203
REMARK   83  A    between atoms: _202  and  _205
REMARK   84  A    between atoms: _205  and  _206
REMARK   85  A    between atoms: _209  and  _211
REMARK   86  A    between atoms: _211  and  _212
REMARK   87  A    between atoms: _215  and  _217
REMARK   88  A    between atoms: _217  and  _218
REMARK   89  A    between atoms: _220  and  _222
REMARK   90  A    between atoms: _222  and  _223
REMARK   91  A    between atoms: _222  and  _225
REMARK   92  A    between atoms: _225  and  _226
REMARK   93  A    between atoms: _226  and  _227
REMARK   94  A    between atoms: _227  and  _228
REMARK   95  A    between atoms: _237  and  _239
REMARK   96  A    between atoms: _239  and  _240
REMARK   97  A    between atoms: _239  and  _242
REMARK   98  A    between atoms: _242  and  _243
REMARK   99  A    between atoms: _254  and  _255
REMARK  100  A    between atoms: _260  and  _262
REMARK  101  A    between atoms: _262  and  _263
REMARK  102  A    between atoms: _262  and  _265
REMARK  103  A    between atoms: _268  and  _270
REMARK  104  A    between atoms: _270  and  _271
REMARK  105  A    between atoms: _270  and  _273
REMARK  106  A    between atoms: _273  and  _274
REMARK  107  A    between atoms: _277  and  _279
REMARK  108  A    between atoms: _279  and  _280
REMARK  109  A    between atoms: _279  and  _282
REMARK  110  A    between atoms: _285  and  _287
REMARK  111  A    between atoms: _287  and  _288
REMARK  112  A    between atoms: _287  and  _290
REMARK  113  A    between atoms: _290  and  _291
REMARK  114  A    between atoms: _294  and  _296
REMARK  115  A    between atoms: _296  and  _297
REMARK  116  A    between atoms: _300  and  _302
REMARK  117  A    between atoms: _302  and  _303
REMARK  118  A    between atoms: _302  and  _305
REMARK  119  A    between atoms: _305  and  _306
REMARK                            x       y       z     vdW  Elec       q    Type
REMARK                         _______ _______ _______ _____ _____    ______ ____
ROOT
ATOM      1  C   ILE A   1      25.063   3.671  15.298  0.00  0.00    +0.238 C 
ATOM      2  N   ALA A   2      24.507   3.709  16.502  0.00  0.00    -0.298 N 
ATOM      3  H   ALA A   2      23.694   3.095  16.711  0.00  0.00    +0.150 HD
ATOM      4  O   ILE A   1      25.977   4.420  14.970  0.00  0.00    -0.274 OA
ENDROOT
BRANCH   2   5
ATOM      5  CA  ALA A   2      25.020   4.601  17.537  0.00  0.00    +0.137 C 
ATOM      6  CB  ALA A   2      24.104   4.579  18.771  0.00  0.00    +0.030 C 
BRANCH   5   7
ATOM      7  C   ALA A   2      26.465   4.246  17.909  0.00  0.00    +0.227 C 
ATOM      8  O   ALA A   2      27.305   5.133  18.106  0.00  0.00    -0.286 OA
ENDBRANCH   5   7
ENDBRANCH   2   5
BRANCH   1   9
ATOM      9  CA  ILE A   1      24.509   2.651  14.310  0.00  0.00    +0.145 C 
BRANCH   9  10
ATOM     10  N   ILE A   1      24.175   1.375  14.927  0.00  0.00    -0.238 NA
ATOM     11  H   ILE A   1      23.178   1.095  15.024  0.00  0.00    +0.142 HD
ENDBRANCH   9  10
BRANCH   9  12
ATOM     12  CB  ILE A   1      23.303   3.239  13.573  0.00  0.00    +0.025 C 
ATOM     13  CG2 ILE A   1      23.603   4.671  13.117  0.00  0.00    +0.002 C 
BRANCH  12  14
ATOM     14  CG1 ILE A   1      22.937   2.342  12.385  0.00  0.00    +0.002 C 
ATOM     15  CD1 ILE A   1      21.569   2.644  11.831  0.00  0.00    +0.000 C 
ENDBRANCH  12  14
ENDBRANCH   9  12
ENDBRANCH   1   9
TORSDOF 6
REMARK  Name = ../refined-set-2016/3ao1/3ao1_pocket.pdb
REMARK  119 active torsions:
REMARK  status: ('A' for Active; 'I' for Inactive)
REMARK    1  A    between atoms: _1  and  _3
REMARK    2  A    between atoms: _3  and  _4
REMARK    3  A    between atoms: _3  and  _6
REMARK    4  A    between atoms: _6  and  _7
REMARK    5  A    between atoms: _12  and  _13
REMARK    6  A    between atoms: _15  and  _17
REMARK    7  A    between atoms: _17  and  _18
REMARK    8  A    between atoms: _17  and  _20
REMARK    9  A    between atoms: _20  and  _21
REMARK   10  A    between atoms: _24  and  _26
REMARK   11  A    between atoms: _26  and  _27
REMARK   12  A    between atoms: _26  and  _29
REMARK   13  A    between atoms: _29  and  _30
REMARK   14  A    between atoms: _40  and  _42
REMARK   15  A    between atoms: _42  and  _43
REMARK   16  A    between atoms: _42  and  _45
REMARK   17  A    between atoms: _48  and  _50
REMARK   18  A    between atoms: _50  and  _51
REMARK   19  A    between atoms: _50  and  _53
REMARK   20  A    between atoms: _53  and  _54
REMARK   21  A    between atoms: _60  and  _62
REMARK   22  A    between atoms: _62  and  _63
REMARK   23  A    between atoms: _62  and  _65
REMARK   24  A    between atoms: _65  and  _66
REMARK   25  A    between atoms: _69  and  _71
REMARK   26  A    between atoms: _71  and  _72
REMARK   27  A    between atoms: _71  and  _74
REMARK   28  A    between atoms: _74  and  _75
REMARK   29  A    between atoms: _80  and  _82
REMARK   30  A    between atoms: _82  and  _83
REMARK   31  A    between atoms: _82  and  _85
REMARK   32  A    between atoms: _85  and  _86
REMARK   33  A    between atoms: _91  and  _93
REMARK   34  A    between atoms: _93  and  _94
REMARK   35  A    between atoms: _93  and  _96
REMARK   36  A    between atoms: _96  and  _97
REMARK   37  A    between atoms: _102  and  _104
REMARK   38  A    between atoms: _104  and  _105
REMARK   39  A    between atoms: _104  and  _107
REMARK   40  A    between atoms: _107  and  _108
REMARK   41  A    between atoms: _108  and  _109
REMARK   42  A    between atoms: _109  and  _110
REMARK   43  A    between atoms: _110  and  _111
REMARK   44  A    between atoms: _115  and  _117
REMARK   45  A    between atoms: _117  and  _118
REMARK   46  A    between atoms: _117  and  _120
REMARK   47  A    between atoms: _120  and  _121
REMARK   48  A    between atoms: _123  and  _125
REMARK   49  A    between atoms: _125  and  _126
REMARK   50  A    between atoms: _129  and  _131
REMARK   51  A    between atoms: _131  and  _132
REMARK   52  A    between atoms: _134  and  _136
REMARK   53  A    between atoms: _136  and  _137
REMARK   54  A    between atoms: _136  and  _139
REMARK   55  A    between atoms: _139  and  _140
REMARK   56  A    between atoms: _140  and  _141
REMARK   57  A    between atoms: _144  and  _146
REMARK   58  A    between atoms: _146  and  _147
REMARK   59  A    between atoms: _146  and  _149
REMARK   60  A    between atoms: _149  and  _150
REMARK   61  A    between atoms: _150  and  _151
REMARK   62  A    between atoms: _151  and  _152
REMARK   63  A    between atoms: _161  and  _163
REMARK   64  A    between atoms: _163  and  _164
REMARK   65  A    between atoms: _163  and  _166
REMARK   66  A    between atoms: _166  and  _167
REMARK   67  A    between atoms: _170  and  _172
REMARK   68  A    between atoms: _172  and  _173
REMARK   69  A    between atoms: _172  and  _175
REMARK   70  A    between atoms: _178  and  _180
REMARK   71  A    between atoms: _180  and  _181
REMARK   72  A    between atoms: _180  and  _183
REMARK   73  A    between atoms: _183  and  _184
REMARK   74  A    between atoms: _187  and  _189
REMARK   75  A    between atoms: _189  and  _190
REMARK   76  A    between atoms: _189  and  _192
REMARK   77  A    between atoms: _192  and  _193
REMARK   78  A    between atoms: _193  and  _194
REMARK   79  A    between atoms: _194  and  _195
REMARK   80  A    between atoms: _195  and  _196
REMARK   81  A    between atoms: _200  and  _202
REMARK   82  A    between atoms: _202  and  _203
REMARK   83  A    between atoms: _202  and  _205
REMARK   84  A    between atoms: _205  and  _206
REMARK   85  A    between atoms: _209  and  _211
REMARK   86  A    between atoms: _211  and  _212
REMARK   87  A    between atoms: _215  and  _217
REMARK   88  A    between atoms: _217  and  _218
REMARK   89  A    between atoms: _220  and  _222
REMARK   90  A    between atoms: _222  and  _223
REMARK   91  A    between atoms: _222  and  _225
REMARK   92  A    between atoms: _225  and  _226
REMARK   93  A    between atoms: _226  and  _227
REMARK   94  A    between atoms: _227  and  _228
REMARK   95  A    between atoms: _237  and  _239
REMARK   96  A    between atoms: _239  and  _240
REMARK   97  A    between atoms: _239  and  _242
REMARK   98  A    between atoms: _242  and  _243
REMARK   99  A    between atoms: _254  and  _255
REMARK  100  A    between atoms: _260  and  _262
REMARK  101  A    between atoms: _262  and  _263
REMARK  102  A    between atoms: _262  and  _265
REMARK  103  A    between atoms: _268  and  _270
REMARK  104  A    between atoms: _270  and  _271
REMARK  105  A    between atoms: _270  and  _273
REMARK  106  A    between atoms: _273  and  _274
REMARK  107  A    between atoms: _277  and  _279
REMARK  108  A    between atoms: _279  and  _280
REMARK  109  A    between atoms: _279  and  _282
REMARK  110  A    between atoms: _285  and  _287
REMARK  111  A    between atoms: _287  and  _288
REMARK  112  A    between atoms: _287  and  _290
REMARK  113  A    between atoms: _290  and  _291
REMARK  114  A    between atoms: _294  and  _296
REMARK  115  A    between atoms: _296  and  _297
REMARK  116  A    between atoms: _300  and  _302
REMARK  117  A    between atoms: _302  and  _303
REMARK  118  A    between atoms: _302  and  _305
REMARK  119  A    between atoms: _305  and  _306
REMARK                            x       y       z     vdW  Elec       q    Type
REMARK                         _______ _______ _______ _____ _____    ______ ____
ROOT
ATOM      1  CA  ILE A   1      29.073   6.823  15.224  0.00  0.00    +0.133 C 
ENDROOT
BRANCH   1   2
ATOM      2  N   ILE A   1      28.805   5.398  15.046  0.00  0.00    -0.239 NA
ATOM      3  H   ILE A   1      27.831   5.043  15.122  0.00  0.00    +0.142 HD
ENDBRANCH   1   2
BRANCH   1   4
ATOM      4  C   ILE A   1      29.974   7.048  16.442  0.00  0.00    +0.224 C 
ATOM      5  O   ILE A   1      30.832   7.935  16.439  0.00  0.00    -0.287 OA
ENDBRANCH   1   4
BRANCH   1   6
ATOM      6  CB  ILE A   1      27.772   7.622  15.408  0.00  0.00    +0.023 C 
ATOM      7  CG2 ILE A   1      28.076   9.089  15.677  0.00  0.00    +0.002 C 
BRANCH   6   8
ATOM      8  CG1 ILE A   1      26.870   7.464  14.181  0.00  0.00    +0.002 C 
ATOM      9  CD1 ILE A   1      25.387   7.623  14.508  0.00  0.00    +0.000 C 
ENDBRANCH   6   8
ENDBRANCH   1   6
TORSDOF 4
REMARK  Name = ../refined-set-2016/3ao1/3ao1_pocket.pdb
REMARK  119 active torsions:
REMARK  status: ('A' for Active; 'I' for Inactive)
REMARK    1  A    between atoms: _1  and  _3
REMARK    2  A    between atoms: _3  and  _4
REMARK    3  A    between atoms: _3  and  _6
REMARK    4  A    between atoms: _6  and  _7
REMARK    5  A    between atoms: _12  and  _13
REMARK    6  A    between atoms: _15  and  _17
REMARK    7  A    between atoms: _17  and  _18
REMARK    8  A    between atoms: _17  and  _20
REMARK    9  A    between atoms: _20  and  _21
REMARK   10  A    between atoms: _24  and  _26
REMARK   11  A    between atoms: _26  and  _27
REMARK   12  A    between atoms: _26  and  _29
REMARK   13  A    between atoms: _29  and  _30
REMARK   14  A    between atoms: _40  and  _42
REMARK   15  A    between atoms: _42  and  _43
REMARK   16  A    between atoms: _42  and  _45
REMARK   17  A    between atoms: _48  and  _50
REMARK   18  A    between atoms: _50  and  _51
REMARK   19  A    between atoms: _50  and  _53
REMARK   20  A    between atoms: _53  and  _54
REMARK   21  A    between atoms: _60  and  _62
REMARK   22  A    between atoms: _62  and  _63
REMARK   23  A    between atoms: _62  and  _65
REMARK   24  A    between atoms: _65  and  _66
REMARK   25  A    between atoms: _69  and  _71
REMARK   26  A    between atoms: _71  and  _72
REMARK   27  A    between atoms: _71  and  _74
REMARK   28  A    between atoms: _74  and  _75
REMARK   29  A    between atoms: _80  and  _82
REMARK   30  A    between atoms: _82  and  _83
REMARK   31  A    between atoms: _82  and  _85
REMARK   32  A    between atoms: _85  and  _86
REMARK   33  A    between atoms: _91  and  _93
REMARK   34  A    between atoms: _93  and  _94
REMARK   35  A    between atoms: _93  and  _96
REMARK   36  A    between atoms: _96  and  _97
REMARK   37  A    between atoms: _102  and  _104
REMARK   38  A    between atoms: _104  and  _105
REMARK   39  A    between atoms: _104  and  _107
REMARK   40  A    between atoms: _107  and  _108
REMARK   41  A    between atoms: _108  and  _109
REMARK   42  A    between atoms: _109  and  _110
REMARK   43  A    between atoms: _110  and  _111
REMARK   44  A    between atoms: _115  and  _117
REMARK   45  A    between atoms: _117  and  _118
REMARK   46  A    between atoms: _117  and  _120
REMARK   47  A    between atoms: _120  and  _121
REMARK   48  A    between atoms: _123  and  _125
REMARK   49  A    between atoms: _125  and  _126
REMARK   50  A    between atoms: _129  and  _131
REMARK   51  A    between atoms: _131  and  _132
REMARK   52  A    between atoms: _134  and  _136
REMARK   53  A    between atoms: _136  and  _137
REMARK   54  A    between atoms: _136  and  _139
REMARK   55  A    between atoms: _139  and  _140
REMARK   56  A    between atoms: _140  and  _141
REMARK   57  A    between atoms: _144  and  _146
REMARK   58  A    between atoms: _146  and  _147
REMARK   59  A    between atoms: _146  and  _149
REMARK   60  A    between atoms: _149  and  _150
REMARK   61  A    between atoms: _150  and  _151
REMARK   62  A    between atoms: _151  and  _152
REMARK   63  A    between atoms: _161  and  _163
REMARK   64  A    between atoms: _163  and  _164
REMARK   65  A    between atoms: _163  and  _166
REMARK   66  A    between atoms: _166  and  _167
REMARK   67  A    between atoms: _170  and  _172
REMARK   68  A    between atoms: _172  and  _173
REMARK   69  A    between atoms: _172  and  _175
REMARK   70  A    between atoms: _178  and  _180
REMARK   71  A    between atoms: _180  and  _181
REMARK   72  A    between atoms: _180  and  _183
REMARK   73  A    between atoms: _183  and  _184
REMARK   74  A    between atoms: _187  and  _189
REMARK   75  A    between atoms: _189  and  _190
REMARK   76  A    between atoms: _189  and  _192
REMARK   77  A    between atoms: _192  and  _193
REMARK   78  A    between atoms: _193  and  _194
REMARK   79  A    between atoms: _194  and  _195
REMARK   80  A    between atoms: _195  and  _196
REMARK   81  A    between atoms: _200  and  _202
REMARK   82  A    between atoms: _202  and  _203
REMARK   83  A    between atoms: _202  and  _205
REMARK   84  A    between atoms: _205  and  _206
REMARK   85  A    between atoms: _209  and  _211
REMARK   86  A    between atoms: _211  and  _212
REMARK   87  A    between atoms: _215  and  _217
REMARK   88  A    between atoms: _217  and  _218
REMARK   89  A    between atoms: _220  and  _222
REMARK   90  A    between atoms: _222  and  _223
REMARK   91  A    between atoms: _222  and  _225
REMARK   92  A    between atoms: _225  and  _226
REMARK   93  A    between atoms: _226  and  _227
REMARK   94  A    between atoms: _227  and  _228
REMARK   95  A    between atoms: _237  and  _239
REMARK   96  A    between atoms: _239  and  _240
REMARK   97  A    between atoms: _239  and  _242
REMARK   98  A    between atoms: _242  and  _243
REMARK   99  A    between atoms: _254  and  _255
REMARK  100  A    between atoms: _260  and  _262
REMARK  101  A    between atoms: _262  and  _263
REMARK  102  A    between atoms: _262  and  _265
REMARK  103  A    between atoms: _268  and  _270
REMARK  104  A    between atoms: _270  and  _271
REMARK  105  A    between atoms: _270  and  _273
REMARK  106  A    between atoms: _273  and  _274
REMARK  107  A    between atoms: _277  and  _279
REMARK  108  A    between atoms: _279  and  _280
REMARK  109  A    between atoms: _279  and  _282
REMARK  110  A    between atoms: _285  and  _287
REMARK  111  A    between atoms: _287  and  _288
REMARK  112  A    between atoms: _287  and  _290
REMARK  113  A    between atoms: _290  and  _291
REMARK  114  A    between atoms: _294  and  _296
REMARK  115  A    between atoms: _296  and  _297
REMARK  116  A    between atoms: _300  and  _302
REMARK  117  A    between atoms: _302  and  _303
REMARK  118  A    between atoms: _302  and  _305
REMARK  119  A    between atoms: _305  and  _306
REMARK                            x       y       z     vdW  Elec       q    Type
REMARK                         _______ _______ _______ _____ _____    ______ ____
ROOT
ATOM      1  O   HOH     1      14.350  10.240   1.934  0.00  0.00    +0.000 OA
ENDROOT
TORSDOF 0
REMARK  Name = ../refined-set-2016/3ao1/3ao1_pocket.pdb
REMARK  119 active torsions:
REMARK  status: ('A' for Active; 'I' for Inactive)
REMARK    1  A    between atoms: _1  and  _3
REMARK    2  A    between atoms: _3  and  _4
REMARK    3  A    between atoms: _3  and  _6
REMARK    4  A    between atoms: _6  and  _7
REMARK    5  A    between atoms: _12  and  _13
REMARK    6  A    between atoms: _15  and  _17
REMARK    7  A    between atoms: _17  and  _18
REMARK    8  A    between atoms: _17  and  _20
REMARK    9  A    between atoms: _20  and  _21
REMARK   10  A    between atoms: _24  and  _26
REMARK   11  A    between atoms: _26  and  _27
REMARK   12  A    between atoms: _26  and  _29
REMARK   13  A    between atoms: _29  and  _30
REMARK   14  A    between atoms: _40  and  _42
REMARK   15  A    between atoms: _42  and  _43
REMARK   16  A    between atoms: _42  and  _45
REMARK   17  A    between atoms: _48  and  _50
REMARK   18  A    between atoms: _50  and  _51
REMARK   19  A    between atoms: _50  and  _53
REMARK   20  A    between atoms: _53  and  _54
REMARK   21  A    between atoms: _60  and  _62
REMARK   22  A    between atoms: _62  and  _63
REMARK   23  A    between atoms: _62  and  _65
REMARK   24  A    between atoms: _65  and  _66
REMARK   25  A    between atoms: _69  and  _71
REMARK   26  A    between atoms: _71  and  _72
REMARK   27  A    between atoms: _71  and  _74
REMARK   28  A    between atoms: _74  and  _75
REMARK   29  A    between atoms: _80  and  _82
REMARK   30  A    between atoms: _82  and  _83
REMARK   31  A    between atoms: _82  and  _85
REMARK   32  A    between atoms: _85  and  _86
REMARK   33  A    between atoms: _91  and  _93
REMARK   34  A    between atoms: _93  and  _94
REMARK   35  A    between atoms: _93  and  _96
REMARK   36  A    between atoms: _96  and  _97
REMARK   37  A    between atoms: _102  and  _104
REMARK   38  A    between atoms: _104  and  _105
REMARK   39  A    between atoms: _104  and  _107
REMARK   40  A    between atoms: _107  and  _108
REMARK   41  A    between atoms: _108  and  _109
REMARK   42  A    between atoms: _109  and  _110
REMARK   43  A    between atoms: _110  and  _111
REMARK   44  A    between atoms: _115  and  _117
REMARK   45  A    between atoms: _117  and  _118
REMARK   46  A    between atoms: _117  and  _120
REMARK   47  A    between atoms: _120  and  _121
REMARK   48  A    between atoms: _123  and  _125
REMARK   49  A    between atoms: _125  and  _126
REMARK   50  A    between atoms: _129  and  _131
REMARK   51  A    between atoms: _131  and  _132
REMARK   52  A    between atoms: _134  and  _136
REMARK   53  A    between atoms: _136  and  _137
REMARK   54  A    between atoms: _136  and  _139
REMARK   55  A    between atoms: _139  and  _140
REMARK   56  A    between atoms: _140  and  _141
REMARK   57  A    between atoms: _144  and  _146
REMARK   58  A    between atoms: _146  and  _147
REMARK   59  A    between atoms: _146  and  _149
REMARK   60  A    between atoms: _149  and  _150
REMARK   61  A    between atoms: _150  and  _151
REMARK   62  A    between atoms: _151  and  _152
REMARK   63  A    between atoms: _161  and  _163
REMARK   64  A    between atoms: _163  and  _164
REMARK   65  A    between atoms: _163  and  _166
REMARK   66  A    between atoms: _166  and  _167
REMARK   67  A    between atoms: _170  and  _172
REMARK   68  A    between atoms: _172  and  _173
REMARK   69  A    between atoms: _172  and  _175
REMARK   70  A    between atoms: _178  and  _180
REMARK   71  A    between atoms: _180  and  _181
REMARK   72  A    between atoms: _180  and  _183
REMARK   73  A    between atoms: _183  and  _184
REMARK   74  A    between atoms: _187  and  _189
REMARK   75  A    between atoms: _189  and  _190
REMARK   76  A    between atoms: _189  and  _192
REMARK   77  A    between atoms: _192  and  _193
REMARK   78  A    between atoms: _193  and  _194
REMARK   79  A    between atoms: _194  and  _195
REMARK   80  A    between atoms: _195  and  _196
REMARK   81  A    between atoms: _200  and  _202
REMARK   82  A    between atoms: _202  and  _203
REMARK   83  A    between atoms: _202  and  _205
REMARK   84  A    between atoms: _205  and  _206
REMARK   85  A    between atoms: _209  and  _211
REMARK   86  A    between atoms: _211  and  _212
REMARK   87  A    between atoms: _215  and  _217
REMARK   88  A    between atoms: _217  and  _218
REMARK   89  A    between atoms: _220  and  _222
REMARK   90  A    between atoms: _222  and  _223
REMARK   91  A    between atoms: _222  and  _225
REMARK   92  A    between atoms: _225  and  _226
REMARK   93  A    between atoms: _226  and  _227
REMARK   94  A    between atoms: _227  and  _228
REMARK   95  A    between atoms: _237  and  _239
REMARK   96  A    between atoms: _239  and  _240
REMARK   97  A    between atoms: _239  and  _242
REMARK   98  A    between atoms: _242  and  _243
REMARK   99  A    between atoms: _254  and  _255
REMARK  100  A    between atoms: _260  and  _262
REMARK  101  A    between atoms: _262  and  _263
REMARK  102  A    between atoms: _262  and  _265
REMARK  103  A    between atoms: _268  and  _270
REMARK  104  A    between atoms: _270  and  _271
REMARK  105  A    between atoms: _270  and  _273
REMARK  106  A    between atoms: _273  and  _274
REMARK  107  A    between atoms: _277  and  _279
REMARK  108  A    between atoms: _279  and  _280
REMARK  109  A    between atoms: _279  and  _282
REMARK  110  A    between atoms: _285  and  _287
REMARK  111  A    between atoms: _287  and  _288
REMARK  112  A    between atoms: _287  and  _290
REMARK  113  A    between atoms: _290  and  _291
REMARK  114  A    between atoms: _294  and  _296
REMARK  115  A    between atoms: _296  and  _297
REMARK  116  A    between atoms: _300  and  _302
REMARK  117  A    between atoms: _302  and  _303
REMARK  118  A    between atoms: _302  and  _305
REMARK  119  A    between atoms: _305  and  _306
REMARK                            x       y       z     vdW  Elec       q    Type
REMARK                         _______ _______ _______ _____ _____    ______ ____
ROOT
ATOM      1  O   HOH     1      21.974   7.277   3.693  0.00  0.00    +0.000 OA
ENDROOT
TORSDOF 0
REMARK  Name = ../refined-set-2016/3ao1/3ao1_pocket.pdb
REMARK  119 active torsions:
REMARK  status: ('A' for Active; 'I' for Inactive)
REMARK    1  A    between atoms: _1  and  _3
REMARK    2  A    between atoms: _3  and  _4
REMARK    3  A    between atoms: _3  and  _6
REMARK    4  A    between atoms: _6  and  _7
REMARK    5  A    between atoms: _12  and  _13
REMARK    6  A    between atoms: _15  and  _17
REMARK    7  A    between atoms: _17  and  _18
REMARK    8  A    between atoms: _17  and  _20
REMARK    9  A    between atoms: _20  and  _21
REMARK   10  A    between atoms: _24  and  _26
REMARK   11  A    between atoms: _26  and  _27
REMARK   12  A    between atoms: _26  and  _29
REMARK   13  A    between atoms: _29  and  _30
REMARK   14  A    between atoms: _40  and  _42
REMARK   15  A    between atoms: _42  and  _43
REMARK   16  A    between atoms: _42  and  _45
REMARK   17  A    between atoms: _48  and  _50
REMARK   18  A    between atoms: _50  and  _51
REMARK   19  A    between atoms: _50  and  _53
REMARK   20  A    between atoms: _53  and  _54
REMARK   21  A    between atoms: _60  and  _62
REMARK   22  A    between atoms: _62  and  _63
REMARK   23  A    between atoms: _62  and  _65
REMARK   24  A    between atoms: _65  and  _66
REMARK   25  A    between atoms: _69  and  _71
REMARK   26  A    between atoms: _71  and  _72
REMARK   27  A    between atoms: _71  and  _74
REMARK   28  A    between atoms: _74  and  _75
REMARK   29  A    between atoms: _80  and  _82
REMARK   30  A    between atoms: _82  and  _83
REMARK   31  A    between atoms: _82  and  _85
REMARK   32  A    between atoms: _85  and  _86
REMARK   33  A    between atoms: _91  and  _93
REMARK   34  A    between atoms: _93  and  _94
REMARK   35  A    between atoms: _93  and  _96
REMARK   36  A    between atoms: _96  and  _97
REMARK   37  A    between atoms: _102  and  _104
REMARK   38  A    between atoms: _104  and  _105
REMARK   39  A    between atoms: _104  and  _107
REMARK   40  A    between atoms: _107  and  _108
REMARK   41  A    between atoms: _108  and  _109
REMARK   42  A    between atoms: _109  and  _110
REMARK   43  A    between atoms: _110  and  _111
REMARK   44  A    between atoms: _115  and  _117
REMARK   45  A    between atoms: _117  and  _118
REMARK   46  A    between atoms: _117  and  _120
REMARK   47  A    between atoms: _120  and  _121
REMARK   48  A    between atoms: _123  and  _125
REMARK   49  A    between atoms: _125  and  _126
REMARK   50  A    between atoms: _129  and  _131
REMARK   51  A    between atoms: _131  and  _132
REMARK   52  A    between atoms: _134  and  _136
REMARK   53  A    between atoms: _136  and  _137
REMARK   54  A    between atoms: _136  and  _139
REMARK   55  A    between atoms: _139  and  _140
REMARK   56  A    between atoms: _140  and  _141
REMARK   57  A    between atoms: _144  and  _146
REMARK   58  A    between atoms: _146  and  _147
REMARK   59  A    between atoms: _146  and  _149
REMARK   60  A    between atoms: _149  and  _150
REMARK   61  A    between atoms: _150  and  _151
REMARK   62  A    between atoms: _151  and  _152
REMARK   63  A    between atoms: _161  and  _163
REMARK   64  A    between atoms: _163  and  _164
REMARK   65  A    between atoms: _163  and  _166
REMARK   66  A    between atoms: _166  and  _167
REMARK   67  A    between atoms: _170  and  _172
REMARK   68  A    between atoms: _172  and  _173
REMARK   69  A    between atoms: _172  and  _175
REMARK   70  A    between atoms: _178  and  _180
REMARK   71  A    between atoms: _180  and  _181
REMARK   72  A    between atoms: _180  and  _183
REMARK   73  A    between atoms: _183  and  _184
REMARK   74  A    between atoms: _187  and  _189
REMARK   75  A    between atoms: _189  and  _190
REMARK   76  A    between atoms: _189  and  _192
REMARK   77  A    between atoms: _192  and  _193
REMARK   78  A    between atoms: _193  and  _194
REMARK   79  A    between atoms: _194  and  _195
REMARK   80  A    between atoms: _195  and  _196
REMARK   81  A    between atoms: _200  and  _202
REMARK   82  A    between atoms: _202  and  _203
REMARK   83  A    between atoms: _202  and  _205
REMARK   84  A    between atoms: _205  and  _206
REMARK   85  A    between atoms: _209  and  _211
REMARK   86  A    between atoms: _211  and  _212
REMARK   87  A    between atoms: _215  and  _217
REMARK   88  A    between atoms: _217  and  _218
REMARK   89  A    between atoms: _220  and  _222
REMARK   90  A    between atoms: _222  and  _223
REMARK   91  A    between atoms: _222  and  _225
REMARK   92  A    between atoms: _225  and  _226
REMARK   93  A    between atoms: _226  and  _227
REMARK   94  A    between atoms: _227  and  _228
REMARK   95  A    between atoms: _237  and  _239
REMARK   96  A    between atoms: _239  and  _240
REMARK   97  A    between atoms: _239  and  _242
REMARK   98  A    between atoms: _242  and  _243
REMARK   99  A    between atoms: _254  and  _255
REMARK  100  A    between atoms: _260  and  _262
REMARK  101  A    between atoms: _262  and  _263
REMARK  102  A    between atoms: _262  and  _265
REMARK  103  A    between atoms: _268  and  _270
REMARK  104  A    between atoms: _270  and  _271
REMARK  105  A    between atoms: _270  and  _273
REMARK  106  A    between atoms: _273  and  _274
REMARK  107  A    between atoms: _277  and  _279
REMARK  108  A    between atoms: _279  and  _280
REMARK  109  A    between atoms: _279  and  _282
REMARK  110  A    between atoms: _285  and  _287
REMARK  111  A    between atoms: _287  and  _288
REMARK  112  A    between atoms: _287  and  _290
REMARK  113  A    between atoms: _290  and  _291
REMARK  114  A    between atoms: _294  and  _296
REMARK  115  A    between atoms: _296  and  _297
REMARK  116  A    between atoms: _300  and  _302
REMARK  117  A    between atoms: _302  and  _303
REMARK  118  A    between atoms: _302  and  _305
REMARK  119  A    between atoms: _305  and  _306
REMARK                            x       y       z     vdW  Elec       q    Type
REMARK                         _______ _______ _______ _____ _____    ______ ____
ROOT
ATOM      1  O   HOH     1      20.247  17.442  10.427  0.00  0.00    +0.000 OA
ENDROOT
TORSDOF 0
REMARK  Name = ../refined-set-2016/3ao1/3ao1_pocket.pdb
REMARK  119 active torsions:
REMARK  status: ('A' for Active; 'I' for Inactive)
REMARK    1  A    between atoms: _1  and  _3
REMARK    2  A    between atoms: _3  and  _4
REMARK    3  A    between atoms: _3  and  _6
REMARK    4  A    between atoms: _6  and  _7
REMARK    5  A    between atoms: _12  and  _13
REMARK    6  A    between atoms: _15  and  _17
REMARK    7  A    between atoms: _17  and  _18
REMARK    8  A    between atoms: _17  and  _20
REMARK    9  A    between atoms: _20  and  _21
REMARK   10  A    between atoms: _24  and  _26
REMARK   11  A    between atoms: _26  and  _27
REMARK   12  A    between atoms: _26  and  _29
REMARK   13  A    between atoms: _29  and  _30
REMARK   14  A    between atoms: _40  and  _42
REMARK   15  A    between atoms: _42  and  _43
REMARK   16  A    between atoms: _42  and  _45
REMARK   17  A    between atoms: _48  and  _50
REMARK   18  A    between atoms: _50  and  _51
REMARK   19  A    between atoms: _50  and  _53
REMARK   20  A    between atoms: _53  and  _54
REMARK   21  A    between atoms: _60  and  _62
REMARK   22  A    between atoms: _62  and  _63
REMARK   23  A    between atoms: _62  and  _65
REMARK   24  A    between atoms: _65  and  _66
REMARK   25  A    between atoms: _69  and  _71
REMARK   26  A    between atoms: _71  and  _72
REMARK   27  A    between atoms: _71  and  _74
REMARK   28  A    between atoms: _74  and  _75
REMARK   29  A    between atoms: _80  and  _82
REMARK   30  A    between atoms: _82  and  _83
REMARK   31  A    between atoms: _82  and  _85
REMARK   32  A    between atoms: _85  and  _86
REMARK   33  A    between atoms: _91  and  _93
REMARK   34  A    between atoms: _93  and  _94
REMARK   35  A    between atoms: _93  and  _96
REMARK   36  A    between atoms: _96  and  _97
REMARK   37  A    between atoms: _102  and  _104
REMARK   38  A    between atoms: _104  and  _105
REMARK   39  A    between atoms: _104  and  _107
REMARK   40  A    between atoms: _107  and  _108
REMARK   41  A    between atoms: _108  and  _109
REMARK   42  A    between atoms: _109  and  _110
REMARK   43  A    between atoms: _110  and  _111
REMARK   44  A    between atoms: _115  and  _117
REMARK   45  A    between atoms: _117  and  _118
REMARK   46  A    between atoms: _117  and  _120
REMARK   47  A    between atoms: _120  and  _121
REMARK   48  A    between atoms: _123  and  _125
REMARK   49  A    between atoms: _125  and  _126
REMARK   50  A    between atoms: _129  and  _131
REMARK   51  A    between atoms: _131  and  _132
REMARK   52  A    between atoms: _134  and  _136
REMARK   53  A    between atoms: _136  and  _137
REMARK   54  A    between atoms: _136  and  _139
REMARK   55  A    between atoms: _139  and  _140
REMARK   56  A    between atoms: _140  and  _141
REMARK   57  A    between atoms: _144  and  _146
REMARK   58  A    between atoms: _146  and  _147
REMARK   59  A    between atoms: _146  and  _149
REMARK   60  A    between atoms: _149  and  _150
REMARK   61  A    between atoms: _150  and  _151
REMARK   62  A    between atoms: _151  and  _152
REMARK   63  A    between atoms: _161  and  _163
REMARK   64  A    between atoms: _163  and  _164
REMARK   65  A    between atoms: _163  and  _166
REMARK   66  A    between atoms: _166  and  _167
REMARK   67  A    between atoms: _170  and  _172
REMARK   68  A    between atoms: _172  and  _173
REMARK   69  A    between atoms: _172  and  _175
REMARK   70  A    between atoms: _178  and  _180
REMARK   71  A    between atoms: _180  and  _181
REMARK   72  A    between atoms: _180  and  _183
REMARK   73  A    between atoms: _183  and  _184
REMARK   74  A    between atoms: _187  and  _189
REMARK   75  A    between atoms: _189  and  _190
REMARK   76  A    between atoms: _189  and  _192
REMARK   77  A    between atoms: _192  and  _193
REMARK   78  A    between atoms: _193  and  _194
REMARK   79  A    between atoms: _194  and  _195
REMARK   80  A    between atoms: _195  and  _196
REMARK   81  A    between atoms: _200  and  _202
REMARK   82  A    between atoms: _202  and  _203
REMARK   83  A    between atoms: _202  and  _205
REMARK   84  A    between atoms: _205  and  _206
REMARK   85  A    between atoms: _209  and  _211
REMARK   86  A    between atoms: _211  and  _212
REMARK   87  A    between atoms: _215  and  _217
REMARK   88  A    between atoms: _217  and  _218
REMARK   89  A    between atoms: _220  and  _222
REMARK   90  A    between atoms: _222  and  _223
REMARK   91  A    between atoms: _222  and  _225
REMARK   92  A    between atoms: _225  and  _226
REMARK   93  A    between atoms: _226  and  _227
REMARK   94  A    between atoms: _227  and  _228
REMARK   95  A    between atoms: _237  and  _239
REMARK   96  A    between atoms: _239  and  _240
REMARK   97  A    between atoms: _239  and  _242
REMARK   98  A    between atoms: _242  and  _243
REMARK   99  A    between atoms: _254  and  _255
REMARK  100  A    between atoms: _260  and  _262
REMARK  101  A    between atoms: _262  and  _263
REMARK  102  A    between atoms: _262  and  _265
REMARK  103  A    between atoms: _268  and  _270
REMARK  104  A    between atoms: _270  and  _271
REMARK  105  A    between atoms: _270  and  _273
REMARK  106  A    between atoms: _273  and  _274
REMARK  107  A    between atoms: _277  and  _279
REMARK  108  A    between atoms: _279  and  _280
REMARK  109  A    between atoms: _279  and  _282
REMARK  110  A    between atoms: _285  and  _287
REMARK  111  A    between atoms: _287  and  _288
REMARK  112  A    between atoms: _287  and  _290
REMARK  113  A    between atoms: _290  and  _291
REMARK  114  A    between atoms: _294  and  _296
REMARK  115  A    between atoms: _296  and  _297
REMARK  116  A    between atoms: _300  and  _302
REMARK  117  A    between atoms: _302  and  _303
REMARK  118  A    between atoms: _302  and  _305
REMARK  119  A    between atoms: _305  and  _306
REMARK                            x       y       z     vdW  Elec       q    Type
REMARK                         _______ _______ _______ _____ _____    ______ ____
ROOT
ATOM      1  O   HOH     1      23.344  11.785   8.895  0.00  0.00    +0.000 OA
ENDROOT
TORSDOF 0
REMARK  Name = ../refined-set-2016/3ao1/3ao1_pocket.pdb
REMARK  119 active torsions:
REMARK  status: ('A' for Active; 'I' for Inactive)
REMARK    1  A    between atoms: _1  and  _3
REMARK    2  A    between atoms: _3  and  _4
REMARK    3  A    between atoms: _3  and  _6
REMARK    4  A    between atoms: _6  and  _7
REMARK    5  A    between atoms: _12  and  _13
REMARK    6  A    between atoms: _15  and  _17
REMARK    7  A    between atoms: _17  and  _18
REMARK    8  A    between atoms: _17  and  _20
REMARK    9  A    between atoms: _20  and  _21
REMARK   10  A    between atoms: _24  and  _26
REMARK   11  A    between atoms: _26  and  _27
REMARK   12  A    between atoms: _26  and  _29
REMARK   13  A    between atoms: _29  and  _30
REMARK   14  A    between atoms: _40  and  _42
REMARK   15  A    between atoms: _42  and  _43
REMARK   16  A    between atoms: _42  and  _45
REMARK   17  A    between atoms: _48  and  _50
REMARK   18  A    between atoms: _50  and  _51
REMARK   19  A    between atoms: _50  and  _53
REMARK   20  A    between atoms: _53  and  _54
REMARK   21  A    between atoms: _60  and  _62
REMARK   22  A    between atoms: _62  and  _63
REMARK   23  A    between atoms: _62  and  _65
REMARK   24  A    between atoms: _65  and  _66
REMARK   25  A    between atoms: _69  and  _71
REMARK   26  A    between atoms: _71  and  _72
REMARK   27  A    between atoms: _71  and  _74
REMARK   28  A    between atoms: _74  and  _75
REMARK   29  A    between atoms: _80  and  _82
REMARK   30  A    between atoms: _82  and  _83
REMARK   31  A    between atoms: _82  and  _85
REMARK   32  A    between atoms: _85  and  _86
REMARK   33  A    between atoms: _91  and  _93
REMARK   34  A    between atoms: _93  and  _94
REMARK   35  A    between atoms: _93  and  _96
REMARK   36  A    between atoms: _96  and  _97
REMARK   37  A    between atoms: _102  and  _104
REMARK   38  A    between atoms: _104  and  _105
REMARK   39  A    between atoms: _104  and  _107
REMARK   40  A    between atoms: _107  and  _108
REMARK   41  A    between atoms: _108  and  _109
REMARK   42  A    between atoms: _109  and  _110
REMARK   43  A    between atoms: _110  and  _111
REMARK   44  A    between atoms: _115  and  _117
REMARK   45  A    between atoms: _117  and  _118
REMARK   46  A    between atoms: _117  and  _120
REMARK   47  A    between atoms: _120  and  _121
REMARK   48  A    between atoms: _123  and  _125
REMARK   49  A    between atoms: _125  and  _126
REMARK   50  A    between atoms: _129  and  _131
REMARK   51  A    between atoms: _131  and  _132
REMARK   52  A    between atoms: _134  and  _136
REMARK   53  A    between atoms: _136  and  _137
REMARK   54  A    between atoms: _136  and  _139
REMARK   55  A    between atoms: _139  and  _140
REMARK   56  A    between atoms: _140  and  _141
REMARK   57  A    between atoms: _144  and  _146
REMARK   58  A    between atoms: _146  and  _147
REMARK   59  A    between atoms: _146  and  _149
REMARK   60  A    between atoms: _149  and  _150
REMARK   61  A    between atoms: _150  and  _151
REMARK   62  A    between atoms: _151  and  _152
REMARK   63  A    between atoms: _161  and  _163
REMARK   64  A    between atoms: _163  and  _164
REMARK   65  A    between atoms: _163  and  _166
REMARK   66  A    between atoms: _166  and  _167
REMARK   67  A    between atoms: _170  and  _172
REMARK   68  A    between atoms: _172  and  _173
REMARK   69  A    between atoms: _172  and  _175
REMARK   70  A    between atoms: _178  and  _180
REMARK   71  A    between atoms: _180  and  _181
REMARK   72  A    between atoms: _180  and  _183
REMARK   73  A    between atoms: _183  and  _184
REMARK   74  A    between atoms: _187  and  _189
REMARK   75  A    between atoms: _189  and  _190
REMARK   76  A    between atoms: _189  and  _192
REMARK   77  A    between atoms: _192  and  _193
REMARK   78  A    between atoms: _193  and  _194
REMARK   79  A    between atoms: _194  and  _195
REMARK   80  A    between atoms: _195  and  _196
REMARK   81  A    between atoms: _200  and  _202
REMARK   82  A    between atoms: _202  and  _203
REMARK   83  A    between atoms: _202  and  _205
REMARK   84  A    between atoms: _205  and  _206
REMARK   85  A    between atoms: _209  and  _211
REMARK   86  A    between atoms: _211  and  _212
REMARK   87  A    between atoms: _215  and  _217
REMARK   88  A    between atoms: _217  and  _218
REMARK   89  A    between atoms: _220  and  _222
REMARK   90  A    between atoms: _222  and  _223
REMARK   91  A    between atoms: _222  and  _225
REMARK   92  A    between atoms: _225  and  _226
REMARK   93  A    between atoms: _226  and  _227
REMARK   94  A    between atoms: _227  and  _228
REMARK   95  A    between atoms: _237  and  _239
REMARK   96  A    between atoms: _239  and  _240
REMARK   97  A    between atoms: _239  and  _242
REMARK   98  A    between atoms: _242  and  _243
REMARK   99  A    between atoms: _254  and  _255
REMARK  100  A    between atoms: _260  and  _262
REMARK  101  A    between atoms: _262  and  _263
REMARK  102  A    between atoms: _262  and  _265
REMARK  103  A    between atoms: _268  and  _270
REMARK  104  A    between atoms: _270  and  _271
REMARK  105  A    between atoms: _270  and  _273
REMARK  106  A    between atoms: _273  and  _274
REMARK  107  A    between atoms: _277  and  _279
REMARK  108  A    between atoms: _279  and  _280
REMARK  109  A    between atoms: _279  and  _282
REMARK  110  A    between atoms: _285  and  _287
REMARK  111  A    between atoms: _287  and  _288
REMARK  112  A    between atoms: _287  and  _290
REMARK  113  A    between atoms: _290  and  _291
REMARK  114  A    between atoms: _294  and  _296
REMARK  115  A    between atoms: _296  and  _297
REMARK  116  A    between atoms: _300  and  _302
REMARK  117  A    between atoms: _302  and  _303
REMARK  118  A    between atoms: _302  and  _305
REMARK  119  A    between atoms: _305  and  _306
REMARK                            x       y       z     vdW  Elec       q    Type
REMARK                         _______ _______ _______ _____ _____    ______ ____
ROOT
ATOM      1  O   HOH     1      22.592   6.661   1.239  0.00  0.00    +0.000 OA
ENDROOT
TORSDOF 0
REMARK  Name = ../refined-set-2016/3ao1/3ao1_pocket.pdb
REMARK  119 active torsions:
REMARK  status: ('A' for Active; 'I' for Inactive)
REMARK    1  A    between atoms: _1  and  _3
REMARK    2  A    between atoms: _3  and  _4
REMARK    3  A    between atoms: _3  and  _6
REMARK    4  A    between atoms: _6  and  _7
REMARK    5  A    between atoms: _12  and  _13
REMARK    6  A    between atoms: _15  and  _17
REMARK    7  A    between atoms: _17  and  _18
REMARK    8  A    between atoms: _17  and  _20
REMARK    9  A    between atoms: _20  and  _21
REMARK   10  A    between atoms: _24  and  _26
REMARK   11  A    between atoms: _26  and  _27
REMARK   12  A    between atoms: _26  and  _29
REMARK   13  A    between atoms: _29  and  _30
REMARK   14  A    between atoms: _40  and  _42
REMARK   15  A    between atoms: _42  and  _43
REMARK   16  A    between atoms: _42  and  _45
REMARK   17  A    between atoms: _48  and  _50
REMARK   18  A    between atoms: _50  and  _51
REMARK   19  A    between atoms: _50  and  _53
REMARK   20  A    between atoms: _53  and  _54
REMARK   21  A    between atoms: _60  and  _62
REMARK   22  A    between atoms: _62  and  _63
REMARK   23  A    between atoms: _62  and  _65
REMARK   24  A    between atoms: _65  and  _66
REMARK   25  A    between atoms: _69  and  _71
REMARK   26  A    between atoms: _71  and  _72
REMARK   27  A    between atoms: _71  and  _74
REMARK   28  A    between atoms: _74  and  _75
REMARK   29  A    between atoms: _80  and  _82
REMARK   30  A    between atoms: _82  and  _83
REMARK   31  A    between atoms: _82  and  _85
REMARK   32  A    between atoms: _85  and  _86
REMARK   33  A    between atoms: _91  and  _93
REMARK   34  A    between atoms: _93  and  _94
REMARK   35  A    between atoms: _93  and  _96
REMARK   36  A    between atoms: _96  and  _97
REMARK   37  A    between atoms: _102  and  _104
REMARK   38  A    between atoms: _104  and  _105
REMARK   39  A    between atoms: _104  and  _107
REMARK   40  A    between atoms: _107  and  _108
REMARK   41  A    between atoms: _108  and  _109
REMARK   42  A    between atoms: _109  and  _110
REMARK   43  A    between atoms: _110  and  _111
REMARK   44  A    between atoms: _115  and  _117
REMARK   45  A    between atoms: _117  and  _118
REMARK   46  A    between atoms: _117  and  _120
REMARK   47  A    between atoms: _120  and  _121
REMARK   48  A    between atoms: _123  and  _125
REMARK   49  A    between atoms: _125  and  _126
REMARK   50  A    between atoms: _129  and  _131
REMARK   51  A    between atoms: _131  and  _132
REMARK   52  A    between atoms: _134  and  _136
REMARK   53  A    between atoms: _136  and  _137
REMARK   54  A    between atoms: _136  and  _139
REMARK   55  A    between atoms: _139  and  _140
REMARK   56  A    between atoms: _140  and  _141
REMARK   57  A    between atoms: _144  and  _146
REMARK   58  A    between atoms: _146  and  _147
REMARK   59  A    between atoms: _146  and  _149
REMARK   60  A    between atoms: _149  and  _150
REMARK   61  A    between atoms: _150  and  _151
REMARK   62  A    between atoms: _151  and  _152
REMARK   63  A    between atoms: _161  and  _163
REMARK   64  A    between atoms: _163  and  _164
REMARK   65  A    between atoms: _163  and  _166
REMARK   66  A    between atoms: _166  and  _167
REMARK   67  A    between atoms: _170  and  _172
REMARK   68  A    between atoms: _172  and  _173
REMARK   69  A    between atoms: _172  and  _175
REMARK   70  A    between atoms: _178  and  _180
REMARK   71  A    between atoms: _180  and  _181
REMARK   72  A    between atoms: _180  and  _183
REMARK   73  A    between atoms: _183  and  _184
REMARK   74  A    between atoms: _187  and  _189
REMARK   75  A    between atoms: _189  and  _190
REMARK   76  A    between atoms: _189  and  _192
REMARK   77  A    between atoms: _192  and  _193
REMARK   78  A    between atoms: _193  and  _194
REMARK   79  A    between atoms: _194  and  _195
REMARK   80  A    between atoms: _195  and  _196
REMARK   81  A    between atoms: _200  and  _202
REMARK   82  A    between atoms: _202  and  _203
REMARK   83  A    between atoms: _202  and  _205
REMARK   84  A    between atoms: _205  and  _206
REMARK   85  A    between atoms: _209  and  _211
REMARK   86  A    between atoms: _211  and  _212
REMARK   87  A    between atoms: _215  and  _217
REMARK   88  A    between atoms: _217  and  _218
REMARK   89  A    between atoms: _220  and  _222
REMARK   90  A    between atoms: _222  and  _223
REMARK   91  A    between atoms: _222  and  _225
REMARK   92  A    between atoms: _225  and  _226
REMARK   93  A    between atoms: _226  and  _227
REMARK   94  A    between atoms: _227  and  _228
REMARK   95  A    between atoms: _237  and  _239
REMARK   96  A    between atoms: _239  and  _240
REMARK   97  A    between atoms: _239  and  _242
REMARK   98  A    between atoms: _242  and  _243
REMARK   99  A    between atoms: _254  and  _255
REMARK  100  A    between atoms: _260  and  _262
REMARK  101  A    between atoms: _262  and  _263
REMARK  102  A    between atoms: _262  and  _265
REMARK  103  A    between atoms: _268  and  _270
REMARK  104  A    between atoms: _270  and  _271
REMARK  105  A    between atoms: _270  and  _273
REMARK  106  A    between atoms: _273  and  _274
REMARK  107  A    between atoms: _277  and  _279
REMARK  108  A    between atoms: _279  and  _280
REMARK  109  A    between atoms: _279  and  _282
REMARK  110  A    between atoms: _285  and  _287
REMARK  111  A    between atoms: _287  and  _288
REMARK  112  A    between atoms: _287  and  _290
REMARK  113  A    between atoms: _290  and  _291
REMARK  114  A    between atoms: _294  and  _296
REMARK  115  A    between atoms: _296  and  _297
REMARK  116  A    between atoms: _300  and  _302
REMARK  117  A    between atoms: _302  and  _303
REMARK  118  A    between atoms: _302  and  _305
REMARK  119  A    between atoms: _305  and  _306
REMARK                            x       y       z     vdW  Elec       q    Type
REMARK                         _______ _______ _______ _____ _____    ______ ____
ROOT
ATOM      1  O   HOH     1      26.588   3.383   7.818  0.00  0.00    +0.000 OA
ENDROOT
TORSDOF 0
REMARK  Name = ../refined-set-2016/3ao1/3ao1_pocket.pdb
REMARK  119 active torsions:
REMARK  status: ('A' for Active; 'I' for Inactive)
REMARK    1  A    between atoms: _1  and  _3
REMARK    2  A    between atoms: _3  and  _4
REMARK    3  A    between atoms: _3  and  _6
REMARK    4  A    between atoms: _6  and  _7
REMARK    5  A    between atoms: _12  and  _13
REMARK    6  A    between atoms: _15  and  _17
REMARK    7  A    between atoms: _17  and  _18
REMARK    8  A    between atoms: _17  and  _20
REMARK    9  A    between atoms: _20  and  _21
REMARK   10  A    between atoms: _24  and  _26
REMARK   11  A    between atoms: _26  and  _27
REMARK   12  A    between atoms: _26  and  _29
REMARK   13  A    between atoms: _29  and  _30
REMARK   14  A    between atoms: _40  and  _42
REMARK   15  A    between atoms: _42  and  _43
REMARK   16  A    between atoms: _42  and  _45
REMARK   17  A    between atoms: _48  and  _50
REMARK   18  A    between atoms: _50  and  _51
REMARK   19  A    between atoms: _50  and  _53
REMARK   20  A    between atoms: _53  and  _54
REMARK   21  A    between atoms: _60  and  _62
REMARK   22  A    between atoms: _62  and  _63
REMARK   23  A    between atoms: _62  and  _65
REMARK   24  A    between atoms: _65  and  _66
REMARK   25  A    between atoms: _69  and  _71
REMARK   26  A    between atoms: _71  and  _72
REMARK   27  A    between atoms: _71  and  _74
REMARK   28  A    between atoms: _74  and  _75
REMARK   29  A    between atoms: _80  and  _82
REMARK   30  A    between atoms: _82  and  _83
REMARK   31  A    between atoms: _82  and  _85
REMARK   32  A    between atoms: _85  and  _86
REMARK   33  A    between atoms: _91  and  _93
REMARK   34  A    between atoms: _93  and  _94
REMARK   35  A    between atoms: _93  and  _96
REMARK   36  A    between atoms: _96  and  _97
REMARK   37  A    between atoms: _102  and  _104
REMARK   38  A    between atoms: _104  and  _105
REMARK   39  A    between atoms: _104  and  _107
REMARK   40  A    between atoms: _107  and  _108
REMARK   41  A    between atoms: _108  and  _109
REMARK   42  A    between atoms: _109  and  _110
REMARK   43  A    between atoms: _110  and  _111
REMARK   44  A    between atoms: _115  and  _117
REMARK   45  A    between atoms: _117  and  _118
REMARK   46  A    between atoms: _117  and  _120
REMARK   47  A    between atoms: _120  and  _121
REMARK   48  A    between atoms: _123  and  _125
REMARK   49  A    between atoms: _125  and  _126
REMARK   50  A    between atoms: _129  and  _131
REMARK   51  A    between atoms: _131  and  _132
REMARK   52  A    between atoms: _134  and  _136
REMARK   53  A    between atoms: _136  and  _137
REMARK   54  A    between atoms: _136  and  _139
REMARK   55  A    between atoms: _139  and  _140
REMARK   56  A    between atoms: _140  and  _141
REMARK   57  A    between atoms: _144  and  _146
REMARK   58  A    between atoms: _146  and  _147
REMARK   59  A    between atoms: _146  and  _149
REMARK   60  A    between atoms: _149  and  _150
REMARK   61  A    between atoms: _150  and  _151
REMARK   62  A    between atoms: _151  and  _152
REMARK   63  A    between atoms: _161  and  _163
REMARK   64  A    between atoms: _163  and  _164
REMARK   65  A    between atoms: _163  and  _166
REMARK   66  A    between atoms: _166  and  _167
REMARK   67  A    between atoms: _170  and  _172
REMARK   68  A    between atoms: _172  and  _173
REMARK   69  A    between atoms: _172  and  _175
REMARK   70  A    between atoms: _178  and  _180
REMARK   71  A    between atoms: _180  and  _181
REMARK   72  A    between atoms: _180  and  _183
REMARK   73  A    between atoms: _183  and  _184
REMARK   74  A    between atoms: _187  and  _189
REMARK   75  A    between atoms: _189  and  _190
REMARK   76  A    between atoms: _189  and  _192
REMARK   77  A    between atoms: _192  and  _193
REMARK   78  A    between atoms: _193  and  _194
REMARK   79  A    between atoms: _194  and  _195
REMARK   80  A    between atoms: _195  and  _196
REMARK   81  A    between atoms: _200  and  _202
REMARK   82  A    between atoms: _202  and  _203
REMARK   83  A    between atoms: _202  and  _205
REMARK   84  A    between atoms: _205  and  _206
REMARK   85  A    between atoms: _209  and  _211
REMARK   86  A    between atoms: _211  and  _212
REMARK   87  A    between atoms: _215  and  _217
REMARK   88  A    between atoms: _217  and  _218
REMARK   89  A    between atoms: _220  and  _222
REMARK   90  A    between atoms: _222  and  _223
REMARK   91  A    between atoms: _222  and  _225
REMARK   92  A    between atoms: _225  and  _226
REMARK   93  A    between atoms: _226  and  _227
REMARK   94  A    between atoms: _227  and  _228
REMARK   95  A    between atoms: _237  and  _239
REMARK   96  A    between atoms: _239  and  _240
REMARK   97  A    between atoms: _239  and  _242
REMARK   98  A    between atoms: _242  and  _243
REMARK   99  A    between atoms: _254  and  _255
REMARK  100  A    between atoms: _260  and  _262
REMARK  101  A    between atoms: _262  and  _263
REMARK  102  A    between atoms: _262  and  _265
REMARK  103  A    between atoms: _268  and  _270
REMARK  104  A    between atoms: _270  and  _271
REMARK  105  A    between atoms: _270  and  _273
REMARK  106  A    between atoms: _273  and  _274
REMARK  107  A    between atoms: _277  and  _279
REMARK  108  A    between atoms: _279  and  _280
REMARK  109  A    between atoms: _279  and  _282
REMARK  110  A    between atoms: _285  and  _287
REMARK  111  A    between atoms: _287  and  _288
REMARK  112  A    between atoms: _287  and  _290
REMARK  113  A    between atoms: _290  and  _291
REMARK  114  A    between atoms: _294  and  _296
REMARK  115  A    between atoms: _296  and  _297
REMARK  116  A    between atoms: _300  and  _302
REMARK  117  A    between atoms: _302  and  _303
REMARK  118  A    between atoms: _302  and  _305
REMARK  119  A    between atoms: _305  and  _306
REMARK                            x       y       z     vdW  Elec       q    Type
REMARK                         _______ _______ _______ _____ _____    ______ ____
ROOT
ATOM      1  O   HOH     1      22.283   1.531   7.516  0.00  0.00    +0.000 OA
ENDROOT
TORSDOF 0
REMARK  Name = ../refined-set-2016/3ao1/3ao1_pocket.pdb
REMARK  119 active torsions:
REMARK  status: ('A' for Active; 'I' for Inactive)
REMARK    1  A    between atoms: _1  and  _3
REMARK    2  A    between atoms: _3  and  _4
REMARK    3  A    between atoms: _3  and  _6
REMARK    4  A    between atoms: _6  and  _7
REMARK    5  A    between atoms: _12  and  _13
REMARK    6  A    between atoms: _15  and  _17
REMARK    7  A    between atoms: _17  and  _18
REMARK    8  A    between atoms: _17  and  _20
REMARK    9  A    between atoms: _20  and  _21
REMARK   10  A    between atoms: _24  and  _26
REMARK   11  A    between atoms: _26  and  _27
REMARK   12  A    between atoms: _26  and  _29
REMARK   13  A    between atoms: _29  and  _30
REMARK   14  A    between atoms: _40  and  _42
REMARK   15  A    between atoms: _42  and  _43
REMARK   16  A    between atoms: _42  and  _45
REMARK   17  A    between atoms: _48  and  _50
REMARK   18  A    between atoms: _50  and  _51
REMARK   19  A    between atoms: _50  and  _53
REMARK   20  A    between atoms: _53  and  _54
REMARK   21  A    between atoms: _60  and  _62
REMARK   22  A    between atoms: _62  and  _63
REMARK   23  A    between atoms: _62  and  _65
REMARK   24  A    between atoms: _65  and  _66
REMARK   25  A    between atoms: _69  and  _71
REMARK   26  A    between atoms: _71  and  _72
REMARK   27  A    between atoms: _71  and  _74
REMARK   28  A    between atoms: _74  and  _75
REMARK   29  A    between atoms: _80  and  _82
REMARK   30  A    between atoms: _82  and  _83
REMARK   31  A    between atoms: _82  and  _85
REMARK   32  A    between atoms: _85  and  _86
REMARK   33  A    between atoms: _91  and  _93
REMARK   34  A    between atoms: _93  and  _94
REMARK   35  A    between atoms: _93  and  _96
REMARK   36  A    between atoms: _96  and  _97
REMARK   37  A    between atoms: _102  and  _104
REMARK   38  A    between atoms: _104  and  _105
REMARK   39  A    between atoms: _104  and  _107
REMARK   40  A    between atoms: _107  and  _108
REMARK   41  A    between atoms: _108  and  _109
REMARK   42  A    between atoms: _109  and  _110
REMARK   43  A    between atoms: _110  and  _111
REMARK   44  A    between atoms: _115  and  _117
REMARK   45  A    between atoms: _117  and  _118
REMARK   46  A    between atoms: _117  and  _120
REMARK   47  A    between atoms: _120  and  _121
REMARK   48  A    between atoms: _123  and  _125
REMARK   49  A    between atoms: _125  and  _126
REMARK   50  A    between atoms: _129  and  _131
REMARK   51  A    between atoms: _131  and  _132
REMARK   52  A    between atoms: _134  and  _136
REMARK   53  A    between atoms: _136  and  _137
REMARK   54  A    between atoms: _136  and  _139
REMARK   55  A    between atoms: _139  and  _140
REMARK   56  A    between atoms: _140  and  _141
REMARK   57  A    between atoms: _144  and  _146
REMARK   58  A    between atoms: _146  and  _147
REMARK   59  A    between atoms: _146  and  _149
REMARK   60  A    between atoms: _149  and  _150
REMARK   61  A    between atoms: _150  and  _151
REMARK   62  A    between atoms: _151  and  _152
REMARK   63  A    between atoms: _161  and  _163
REMARK   64  A    between atoms: _163  and  _164
REMARK   65  A    between atoms: _163  and  _166
REMARK   66  A    between atoms: _166  and  _167
REMARK   67  A    between atoms: _170  and  _172
REMARK   68  A    between atoms: _172  and  _173
REMARK   69  A    between atoms: _172  and  _175
REMARK   70  A    between atoms: _178  and  _180
REMARK   71  A    between atoms: _180  and  _181
REMARK   72  A    between atoms: _180  and  _183
REMARK   73  A    between atoms: _183  and  _184
REMARK   74  A    between atoms: _187  and  _189
REMARK   75  A    between atoms: _189  and  _190
REMARK   76  A    between atoms: _189  and  _192
REMARK   77  A    between atoms: _192  and  _193
REMARK   78  A    between atoms: _193  and  _194
REMARK   79  A    between atoms: _194  and  _195
REMARK   80  A    between atoms: _195  and  _196
REMARK   81  A    between atoms: _200  and  _202
REMARK   82  A    between atoms: _202  and  _203
REMARK   83  A    between atoms: _202  and  _205
REMARK   84  A    between atoms: _205  and  _206
REMARK   85  A    between atoms: _209  and  _211
REMARK   86  A    between atoms: _211  and  _212
REMARK   87  A    between atoms: _215  and  _217
REMARK   88  A    between atoms: _217  and  _218
REMARK   89  A    between atoms: _220  and  _222
REMARK   90  A    between atoms: _222  and  _223
REMARK   91  A    between atoms: _222  and  _225
REMARK   92  A    between atoms: _225  and  _226
REMARK   93  A    between atoms: _226  and  _227
REMARK   94  A    between atoms: _227  and  _228
REMARK   95  A    between atoms: _237  and  _239
REMARK   96  A    between atoms: _239  and  _240
REMARK   97  A    between atoms: _239  and  _242
REMARK   98  A    between atoms: _242  and  _243
REMARK   99  A    between atoms: _254  and  _255
REMARK  100  A    between atoms: _260  and  _262
REMARK  101  A    between atoms: _262  and  _263
REMARK  102  A    between atoms: _262  and  _265
REMARK  103  A    between atoms: _268  and  _270
REMARK  104  A    between atoms: _270  and  _271
REMARK  105  A    between atoms: _270  and  _273
REMARK  106  A    between atoms: _273  and  _274
REMARK  107  A    between atoms: _277  and  _279
REMARK  108  A    between atoms: _279  and  _280
REMARK  109  A    between atoms: _279  and  _282
REMARK  110  A    between atoms: _285  and  _287
REMARK  111  A    between atoms: _287  and  _288
REMARK  112  A    between atoms: _287  and  _290
REMARK  113  A    between atoms: _290  and  _291
REMARK  114  A    between atoms: _294  and  _296
REMARK  115  A    between atoms: _296  and  _297
REMARK  116  A    between atoms: _300  and  _302
REMARK  117  A    between atoms: _302  and  _303
REMARK  118  A    between atoms: _302  and  _305
REMARK  119  A    between atoms: _305  and  _306
REMARK                            x       y       z     vdW  Elec       q    Type
REMARK                         _______ _______ _______ _____ _____    ______ ____
ROOT
ATOM      1  O   HOH     1      12.563   4.869   8.674  0.00  0.00    +0.000 OA
ENDROOT
TORSDOF 0
