REMARK  Name = ../refined-set-2016/2j77/2j77_pocket.pdb
REMARK  147 active torsions:
REMARK  status: ('A' for Active; 'I' for Inactive)
REMARK    1  A    between atoms: _1  and  _3
REMARK    2  A    between atoms: _3  and  _4
REMARK    3  A    between atoms: _7  and  _9
REMARK    4  A    between atoms: _9  and  _10
REMARK    5  A    between atoms: _9  and  _12
REMARK    6  A    between atoms: _12  and  _13
REMARK    7  A    between atoms: _16  and  _18
REMARK    8  A    between atoms: _18  and  _19
REMARK    9  A    between atoms: _22  and  _24
REMARK   10  A    between atoms: _24  and  _25
REMARK   11  A    between atoms: _24  and  _27
REMARK   12  A    between atoms: _27  and  _28
REMARK   13  A    between atoms: _28  and  _29
REMARK   14  A    between atoms: _34  and  _36
REMARK   15  A    between atoms: _36  and  _37
REMARK   16  A    between atoms: _36  and  _39
REMARK   17  A    between atoms: _39  and  _40
REMARK   18  A    between atoms: _40  and  _41
REMARK   19  A    between atoms: _41  and  _42
REMARK   20  A    between atoms: _51  and  _53
REMARK   21  A    between atoms: _53  and  _54
REMARK   22  A    between atoms: _53  and  _56
REMARK   23  A    between atoms: _56  and  _57
REMARK   24  A    between atoms: _60  and  _62
REMARK   25  A    between atoms: _62  and  _63
REMARK   26  A    between atoms: _62  and  _65
REMARK   27  A    between atoms: _65  and  _66
REMARK   28  A    between atoms: _71  and  _73
REMARK   29  A    between atoms: _73  and  _74
REMARK   30  A    between atoms: _73  and  _76
REMARK   31  A    between atoms: _76  and  _77
REMARK   32  A    between atoms: _87  and  _89
REMARK   33  A    between atoms: _89  and  _90
REMARK   34  A    between atoms: _89  and  _92
REMARK   35  A    between atoms: _92  and  _93
REMARK   36  A    between atoms: _98  and  _100
REMARK   37  A    between atoms: _100  and  _101
REMARK   38  A    between atoms: _100  and  _103
REMARK   39  A    between atoms: _103  and  _104
REMARK   40  A    between atoms: _104  and  _105
REMARK   41  A    between atoms: _108  and  _110
REMARK   42  A    between atoms: _110  and  _111
REMARK   43  A    between atoms: _110  and  _113
REMARK   44  A    between atoms: _116  and  _118
REMARK   45  A    between atoms: _118  and  _119
REMARK   46  A    between atoms: _118  and  _121
REMARK   47  A    between atoms: _121  and  _122
REMARK   48  A    between atoms: _127  and  _129
REMARK   49  A    between atoms: _129  and  _130
REMARK   50  A    between atoms: _129  and  _132
REMARK   51  A    between atoms: _135  and  _137
REMARK   52  A    between atoms: _137  and  _138
REMARK   53  A    between atoms: _137  and  _140
REMARK   54  A    between atoms: _140  and  _141
REMARK   55  A    between atoms: _147  and  _149
REMARK   56  A    between atoms: _149  and  _150
REMARK   57  A    between atoms: _149  and  _152
REMARK   58  A    between atoms: _152  and  _153
REMARK   59  A    between atoms: _158  and  _160
REMARK   60  A    between atoms: _160  and  _161
REMARK   61  A    between atoms: _160  and  _163
REMARK   62  A    between atoms: _163  and  _164
REMARK   63  A    between atoms: _169  and  _171
REMARK   64  A    between atoms: _171  and  _172
REMARK   65  A    between atoms: _171  and  _174
REMARK   66  A    between atoms: _174  and  _175
REMARK   67  A    between atoms: _180  and  _182
REMARK   68  A    between atoms: _182  and  _183
REMARK   69  A    between atoms: _182  and  _185
REMARK   70  A    between atoms: _185  and  _186
REMARK   71  A    between atoms: _191  and  _192
REMARK   72  A    between atoms: _194  and  _196
REMARK   73  A    between atoms: _196  and  _197
REMARK   74  A    between atoms: _196  and  _199
REMARK   75  A    between atoms: _199  and  _200
REMARK   76  A    between atoms: _205  and  _206
REMARK   77  A    between atoms: _208  and  _210
REMARK   78  A    between atoms: _210  and  _211
REMARK   79  A    between atoms: _210  and  _213
REMARK   80  A    between atoms: _213  and  _214
REMARK   81  A    between atoms: _214  and  _215
REMARK   82  A    between atoms: _217  and  _219
REMARK   83  A    between atoms: _219  and  _220
REMARK   84  A    between atoms: _219  and  _222
REMARK   85  A    between atoms: _222  and  _223
REMARK   86  A    between atoms: _233  and  _235
REMARK   87  A    between atoms: _235  and  _236
REMARK   88  A    between atoms: _235  and  _238
REMARK   89  A    between atoms: _238  and  _239
REMARK   90  A    between atoms: _242  and  _244
REMARK   91  A    between atoms: _244  and  _245
REMARK   92  A    between atoms: _244  and  _247
REMARK   93  A    between atoms: _247  and  _248
REMARK   94  A    between atoms: _248  and  _249
REMARK   95  A    between atoms: _252  and  _254
REMARK   96  A    between atoms: _254  and  _255
REMARK   97  A    between atoms: _254  and  _257
REMARK   98  A    between atoms: _257  and  _258
REMARK   99  A    between atoms: _263  and  _265
REMARK  100  A    between atoms: _265  and  _266
REMARK  101  A    between atoms: _268  and  _270
REMARK  102  A    between atoms: _270  and  _271
REMARK  103  A    between atoms: _274  and  _276
REMARK  104  A    between atoms: _276  and  _277
REMARK  105  A    between atoms: _280  and  _282
REMARK  106  A    between atoms: _282  and  _283
REMARK  107  A    between atoms: _282  and  _285
REMARK  108  A    between atoms: _285  and  _286
REMARK  109  A    between atoms: _296  and  _298
REMARK  110  A    between atoms: _298  and  _299
REMARK  111  A    between atoms: _298  and  _301
REMARK  112  A    between atoms: _301  and  _302
REMARK  113  A    between atoms: _304  and  _306
REMARK  114  A    between atoms: _306  and  _307
REMARK  115  A    between atoms: _306  and  _309
REMARK  116  A    between atoms: _309  and  _310
REMARK  117  A    between atoms: _315  and  _317
REMARK  118  A    between atoms: _317  and  _318
REMARK  119  A    between atoms: _317  and  _320
REMARK  120  A    between atoms: _320  and  _321
REMARK  121  A    between atoms: _327  and  _329
REMARK  122  A    between atoms: _329  and  _330
REMARK  123  A    between atoms: _329  and  _332
REMARK  124  A    between atoms: _332  and  _333
REMARK  125  A    between atoms: _333  and  _334
REMARK  126  A    between atoms: _337  and  _339
REMARK  127  A    between atoms: _339  and  _340
REMARK  128  A    between atoms: _339  and  _342
REMARK  129  A    between atoms: _342  and  _343
REMARK  130  A    between atoms: _353  and  _355
REMARK  131  A    between atoms: _355  and  _356
REMARK  132  A    between atoms: _359  and  _361
REMARK  133  A    between atoms: _361  and  _362
REMARK  134  A    between atoms: _361  and  _364
REMARK  135  A    between atoms: _364  and  _365
REMARK  136  A    between atoms: _365  and  _366
REMARK  137  A    between atoms: _369  and  _371
REMARK  138  A    between atoms: _371  and  _372
REMARK  139  A    between atoms: _371  and  _374
REMARK  140  A    between atoms: _374  and  _375
REMARK  141  A    between atoms: _375  and  _376
REMARK  142  A    between atoms: _376  and  _377
REMARK  143  A    between atoms: _377  and  _378
REMARK  144  A    between atoms: _382  and  _384
REMARK  145  A    between atoms: _384  and  _385
REMARK  146  A    between atoms: _384  and  _387
REMARK  147  A    between atoms: _387  and  _388
REMARK                            x       y       z     vdW  Elec       q    Type
REMARK                         _______ _______ _______ _____ _____    ______ ____
ROOT
ATOM      1  CA  THR A   2      -1.896  18.222   4.635  0.00  0.00    +0.176 C 
ENDROOT
BRANCH   1   4
ATOM      2  C   ALA A   1      -3.744  18.838   6.138  0.00  0.00    +0.238 C 
ATOM      3  O   ALA A   1      -4.486  17.935   5.745  0.00  0.00    -0.274 OA
ATOM      4  N   THR A   2      -2.533  19.074   5.630  0.00  0.00    -0.295 N 
ATOM      5  H   THR A   2      -2.015  19.912   5.963  0.00  0.00    +0.150 HD
BRANCH   2   6
ATOM      6  CA  ALA A   1      -4.174  19.742   7.292  0.00  0.00    +0.145 C 
ATOM      7  CB  ALA A   1      -3.824  19.083   8.619  0.00  0.00    +0.028 C 
BRANCH   6   8
ATOM      8  N   ALA A   1      -5.603  20.063   7.255  0.00  0.00    -0.238 NA
ATOM      9  H   ALA A   1      -6.297  19.301   7.117  0.00  0.00    +0.142 HD
ENDBRANCH   6   8
ENDBRANCH   2   6
ENDBRANCH   1   4
BRANCH   1  10
ATOM     10  C   THR A   2      -0.407  18.013   5.024  0.00  0.00    +0.243 C 
ATOM     11  O   THR A   2       0.039  18.500   6.076  0.00  0.00    -0.273 OA
ATOM     12  N   ALA A   3       0.324  17.249   4.203  0.00  0.00    -0.298 N 
ATOM     13  H   ALA A   3      -0.166  16.713   3.458  0.00  0.00    +0.150 HD
BRANCH  12  14
ATOM     14  CA  ALA A   3       1.795  17.130   4.304  0.00  0.00    +0.137 C 
ATOM     15  CB  ALA A   3       2.209  15.917   5.090  0.00  0.00    +0.030 C 
BRANCH  14  16
ATOM     16  C   ALA A   3       2.343  17.056   2.899  0.00  0.00    +0.227 C 
ATOM     17  O   ALA A   3       1.701  16.499   2.011  0.00  0.00    -0.286 OA
ENDBRANCH  14  16
ENDBRANCH  12  14
ENDBRANCH   1  10
BRANCH   1  18
ATOM     18  CB  THR A   2      -1.983  18.849   3.218  0.00  0.00    +0.137 C 
ATOM     19  CG2 THR A   2      -3.453  19.025   2.741  0.00  0.00    +0.034 C 
BRANCH  18  20
ATOM     20  OG1 THR A   2      -1.345  20.131   3.220  0.00  0.00    -0.382 OA
ATOM     21  HG1 THR A   2      -1.402  20.528   2.315  0.00  0.00    +0.210 HD
ENDBRANCH  18  20
ENDBRANCH   1  18
TORSDOF 8
REMARK  Name = ../refined-set-2016/2j77/2j77_pocket.pdb
REMARK  147 active torsions:
REMARK  status: ('A' for Active; 'I' for Inactive)
REMARK    1  A    between atoms: _1  and  _3
REMARK    2  A    between atoms: _3  and  _4
REMARK    3  A    between atoms: _7  and  _9
REMARK    4  A    between atoms: _9  and  _10
REMARK    5  A    between atoms: _9  and  _12
REMARK    6  A    between atoms: _12  and  _13
REMARK    7  A    between atoms: _16  and  _18
REMARK    8  A    between atoms: _18  and  _19
REMARK    9  A    between atoms: _22  and  _24
REMARK   10  A    between atoms: _24  and  _25
REMARK   11  A    between atoms: _24  and  _27
REMARK   12  A    between atoms: _27  and  _28
REMARK   13  A    between atoms: _28  and  _29
REMARK   14  A    between atoms: _34  and  _36
REMARK   15  A    between atoms: _36  and  _37
REMARK   16  A    between atoms: _36  and  _39
REMARK   17  A    between atoms: _39  and  _40
REMARK   18  A    between atoms: _40  and  _41
REMARK   19  A    between atoms: _41  and  _42
REMARK   20  A    between atoms: _51  and  _53
REMARK   21  A    between atoms: _53  and  _54
REMARK   22  A    between atoms: _53  and  _56
REMARK   23  A    between atoms: _56  and  _57
REMARK   24  A    between atoms: _60  and  _62
REMARK   25  A    between atoms: _62  and  _63
REMARK   26  A    between atoms: _62  and  _65
REMARK   27  A    between atoms: _65  and  _66
REMARK   28  A    between atoms: _71  and  _73
REMARK   29  A    between atoms: _73  and  _74
REMARK   30  A    between atoms: _73  and  _76
REMARK   31  A    between atoms: _76  and  _77
REMARK   32  A    between atoms: _87  and  _89
REMARK   33  A    between atoms: _89  and  _90
REMARK   34  A    between atoms: _89  and  _92
REMARK   35  A    between atoms: _92  and  _93
REMARK   36  A    between atoms: _98  and  _100
REMARK   37  A    between atoms: _100  and  _101
REMARK   38  A    between atoms: _100  and  _103
REMARK   39  A    between atoms: _103  and  _104
REMARK   40  A    between atoms: _104  and  _105
REMARK   41  A    between atoms: _108  and  _110
REMARK   42  A    between atoms: _110  and  _111
REMARK   43  A    between atoms: _110  and  _113
REMARK   44  A    between atoms: _116  and  _118
REMARK   45  A    between atoms: _118  and  _119
REMARK   46  A    between atoms: _118  and  _121
REMARK   47  A    between atoms: _121  and  _122
REMARK   48  A    between atoms: _127  and  _129
REMARK   49  A    between atoms: _129  and  _130
REMARK   50  A    between atoms: _129  and  _132
REMARK   51  A    between atoms: _135  and  _137
REMARK   52  A    between atoms: _137  and  _138
REMARK   53  A    between atoms: _137  and  _140
REMARK   54  A    between atoms: _140  and  _141
REMARK   55  A    between atoms: _147  and  _149
REMARK   56  A    between atoms: _149  and  _150
REMARK   57  A    between atoms: _149  and  _152
REMARK   58  A    between atoms: _152  and  _153
REMARK   59  A    between atoms: _158  and  _160
REMARK   60  A    between atoms: _160  and  _161
REMARK   61  A    between atoms: _160  and  _163
REMARK   62  A    between atoms: _163  and  _164
REMARK   63  A    between atoms: _169  and  _171
REMARK   64  A    between atoms: _171  and  _172
REMARK   65  A    between atoms: _171  and  _174
REMARK   66  A    between atoms: _174  and  _175
REMARK   67  A    between atoms: _180  and  _182
REMARK   68  A    between atoms: _182  and  _183
REMARK   69  A    between atoms: _182  and  _185
REMARK   70  A    between atoms: _185  and  _186
REMARK   71  A    between atoms: _191  and  _192
REMARK   72  A    between atoms: _194  and  _196
REMARK   73  A    between atoms: _196  and  _197
REMARK   74  A    between atoms: _196  and  _199
REMARK   75  A    between atoms: _199  and  _200
REMARK   76  A    between atoms: _205  and  _206
REMARK   77  A    between atoms: _208  and  _210
REMARK   78  A    between atoms: _210  and  _211
REMARK   79  A    between atoms: _210  and  _213
REMARK   80  A    between atoms: _213  and  _214
REMARK   81  A    between atoms: _214  and  _215
REMARK   82  A    between atoms: _217  and  _219
REMARK   83  A    between atoms: _219  and  _220
REMARK   84  A    between atoms: _219  and  _222
REMARK   85  A    between atoms: _222  and  _223
REMARK   86  A    between atoms: _233  and  _235
REMARK   87  A    between atoms: _235  and  _236
REMARK   88  A    between atoms: _235  and  _238
REMARK   89  A    between atoms: _238  and  _239
REMARK   90  A    between atoms: _242  and  _244
REMARK   91  A    between atoms: _244  and  _245
REMARK   92  A    between atoms: _244  and  _247
REMARK   93  A    between atoms: _247  and  _248
REMARK   94  A    between atoms: _248  and  _249
REMARK   95  A    between atoms: _252  and  _254
REMARK   96  A    between atoms: _254  and  _255
REMARK   97  A    between atoms: _254  and  _257
REMARK   98  A    between atoms: _257  and  _258
REMARK   99  A    between atoms: _263  and  _265
REMARK  100  A    between atoms: _265  and  _266
REMARK  101  A    between atoms: _268  and  _270
REMARK  102  A    between atoms: _270  and  _271
REMARK  103  A    between atoms: _274  and  _276
REMARK  104  A    between atoms: _276  and  _277
REMARK  105  A    between atoms: _280  and  _282
REMARK  106  A    between atoms: _282  and  _283
REMARK  107  A    between atoms: _282  and  _285
REMARK  108  A    between atoms: _285  and  _286
REMARK  109  A    between atoms: _296  and  _298
REMARK  110  A    between atoms: _298  and  _299
REMARK  111  A    between atoms: _298  and  _301
REMARK  112  A    between atoms: _301  and  _302
REMARK  113  A    between atoms: _304  and  _306
REMARK  114  A    between atoms: _306  and  _307
REMARK  115  A    between atoms: _306  and  _309
REMARK  116  A    between atoms: _309  and  _310
REMARK  117  A    between atoms: _315  and  _317
REMARK  118  A    between atoms: _317  and  _318
REMARK  119  A    between atoms: _317  and  _320
REMARK  120  A    between atoms: _320  and  _321
REMARK  121  A    between atoms: _327  and  _329
REMARK  122  A    between atoms: _329  and  _330
REMARK  123  A    between atoms: _329  and  _332
REMARK  124  A    between atoms: _332  and  _333
REMARK  125  A    between atoms: _333  and  _334
REMARK  126  A    between atoms: _337  and  _339
REMARK  127  A    between atoms: _339  and  _340
REMARK  128  A    between atoms: _339  and  _342
REMARK  129  A    between atoms: _342  and  _343
REMARK  130  A    between atoms: _353  and  _355
REMARK  131  A    between atoms: _355  and  _356
REMARK  132  A    between atoms: _359  and  _361
REMARK  133  A    between atoms: _361  and  _362
REMARK  134  A    between atoms: _361  and  _364
REMARK  135  A    between atoms: _364  and  _365
REMARK  136  A    between atoms: _365  and  _366
REMARK  137  A    between atoms: _369  and  _371
REMARK  138  A    between atoms: _371  and  _372
REMARK  139  A    between atoms: _371  and  _374
REMARK  140  A    between atoms: _374  and  _375
REMARK  141  A    between atoms: _375  and  _376
REMARK  142  A    between atoms: _376  and  _377
REMARK  143  A    between atoms: _377  and  _378
REMARK  144  A    between atoms: _382  and  _384
REMARK  145  A    between atoms: _384  and  _385
REMARK  146  A    between atoms: _384  and  _387
REMARK  147  A    between atoms: _387  and  _388
REMARK                            x       y       z     vdW  Elec       q    Type
REMARK                         _______ _______ _______ _____ _____    ______ ____
ROOT
ATOM      1  CB  GLN A   1       0.594  13.046   1.841  0.00  0.00    +0.035 C 
ENDROOT
BRANCH   1   2
ATOM      2  CA  GLN A   1       1.384  13.100   0.536  0.00  0.00    +0.134 C 
BRANCH   2   3
ATOM      3  N   GLN A   1       2.682  13.738   0.742  0.00  0.00    -0.239 NA
ATOM      4  H   GLN A   1       2.835  14.323   1.588  0.00  0.00    +0.142 HD
ENDBRANCH   2   3
BRANCH   2   5
ATOM      5  C   GLN A   1       0.580  13.769  -0.587  0.00  0.00    +0.224 C 
ATOM      6  O   GLN A   1      -0.192  13.104  -1.255  0.00  0.00    -0.287 OA
ENDBRANCH   2   5
ENDBRANCH   1   2
BRANCH   1   7
ATOM      7  CG  GLN A   1       1.334  12.273   2.935  0.00  0.00    +0.087 C 
BRANCH   7   8
ATOM      8  CD  GLN A   1       0.510  12.116   4.183  0.00  0.00    +0.219 C 
ATOM      9  OE1 GLN A   1       0.653  12.891   5.129  0.00  0.00    -0.275 OA
ATOM     10  NE2 GLN A   1      -0.343  11.112   4.208  0.00  0.00    -0.329 N 
ATOM     11 HE21 GLN A   1      -0.930  10.949   5.051  0.00  0.00    +0.145 HD
ATOM     12 HE22 GLN A   1      -0.430  10.483   3.385  0.00  0.00    +0.145 HD
ENDBRANCH   7   8
ENDBRANCH   1   7
TORSDOF 5
REMARK  Name = ../refined-set-2016/2j77/2j77_pocket.pdb
REMARK  147 active torsions:
REMARK  status: ('A' for Active; 'I' for Inactive)
REMARK    1  A    between atoms: _1  and  _3
REMARK    2  A    between atoms: _3  and  _4
REMARK    3  A    between atoms: _7  and  _9
REMARK    4  A    between atoms: _9  and  _10
REMARK    5  A    between atoms: _9  and  _12
REMARK    6  A    between atoms: _12  and  _13
REMARK    7  A    between atoms: _16  and  _18
REMARK    8  A    between atoms: _18  and  _19
REMARK    9  A    between atoms: _22  and  _24
REMARK   10  A    between atoms: _24  and  _25
REMARK   11  A    between atoms: _24  and  _27
REMARK   12  A    between atoms: _27  and  _28
REMARK   13  A    between atoms: _28  and  _29
REMARK   14  A    between atoms: _34  and  _36
REMARK   15  A    between atoms: _36  and  _37
REMARK   16  A    between atoms: _36  and  _39
REMARK   17  A    between atoms: _39  and  _40
REMARK   18  A    between atoms: _40  and  _41
REMARK   19  A    between atoms: _41  and  _42
REMARK   20  A    between atoms: _51  and  _53
REMARK   21  A    between atoms: _53  and  _54
REMARK   22  A    between atoms: _53  and  _56
REMARK   23  A    between atoms: _56  and  _57
REMARK   24  A    between atoms: _60  and  _62
REMARK   25  A    between atoms: _62  and  _63
REMARK   26  A    between atoms: _62  and  _65
REMARK   27  A    between atoms: _65  and  _66
REMARK   28  A    between atoms: _71  and  _73
REMARK   29  A    between atoms: _73  and  _74
REMARK   30  A    between atoms: _73  and  _76
REMARK   31  A    between atoms: _76  and  _77
REMARK   32  A    between atoms: _87  and  _89
REMARK   33  A    between atoms: _89  and  _90
REMARK   34  A    between atoms: _89  and  _92
REMARK   35  A    between atoms: _92  and  _93
REMARK   36  A    between atoms: _98  and  _100
REMARK   37  A    between atoms: _100  and  _101
REMARK   38  A    between atoms: _100  and  _103
REMARK   39  A    between atoms: _103  and  _104
REMARK   40  A    between atoms: _104  and  _105
REMARK   41  A    between atoms: _108  and  _110
REMARK   42  A    between atoms: _110  and  _111
REMARK   43  A    between atoms: _110  and  _113
REMARK   44  A    between atoms: _116  and  _118
REMARK   45  A    between atoms: _118  and  _119
REMARK   46  A    between atoms: _118  and  _121
REMARK   47  A    between atoms: _121  and  _122
REMARK   48  A    between atoms: _127  and  _129
REMARK   49  A    between atoms: _129  and  _130
REMARK   50  A    between atoms: _129  and  _132
REMARK   51  A    between atoms: _135  and  _137
REMARK   52  A    between atoms: _137  and  _138
REMARK   53  A    between atoms: _137  and  _140
REMARK   54  A    between atoms: _140  and  _141
REMARK   55  A    between atoms: _147  and  _149
REMARK   56  A    between atoms: _149  and  _150
REMARK   57  A    between atoms: _149  and  _152
REMARK   58  A    between atoms: _152  and  _153
REMARK   59  A    between atoms: _158  and  _160
REMARK   60  A    between atoms: _160  and  _161
REMARK   61  A    between atoms: _160  and  _163
REMARK   62  A    between atoms: _163  and  _164
REMARK   63  A    between atoms: _169  and  _171
REMARK   64  A    between atoms: _171  and  _172
REMARK   65  A    between atoms: _171  and  _174
REMARK   66  A    between atoms: _174  and  _175
REMARK   67  A    between atoms: _180  and  _182
REMARK   68  A    between atoms: _182  and  _183
REMARK   69  A    between atoms: _182  and  _185
REMARK   70  A    between atoms: _185  and  _186
REMARK   71  A    between atoms: _191  and  _192
REMARK   72  A    between atoms: _194  and  _196
REMARK   73  A    between atoms: _196  and  _197
REMARK   74  A    between atoms: _196  and  _199
REMARK   75  A    between atoms: _199  and  _200
REMARK   76  A    between atoms: _205  and  _206
REMARK   77  A    between atoms: _208  and  _210
REMARK   78  A    between atoms: _210  and  _211
REMARK   79  A    between atoms: _210  and  _213
REMARK   80  A    between atoms: _213  and  _214
REMARK   81  A    between atoms: _214  and  _215
REMARK   82  A    between atoms: _217  and  _219
REMARK   83  A    between atoms: _219  and  _220
REMARK   84  A    between atoms: _219  and  _222
REMARK   85  A    between atoms: _222  and  _223
REMARK   86  A    between atoms: _233  and  _235
REMARK   87  A    between atoms: _235  and  _236
REMARK   88  A    between atoms: _235  and  _238
REMARK   89  A    between atoms: _238  and  _239
REMARK   90  A    between atoms: _242  and  _244
REMARK   91  A    between atoms: _244  and  _245
REMARK   92  A    between atoms: _244  and  _247
REMARK   93  A    between atoms: _247  and  _248
REMARK   94  A    between atoms: _248  and  _249
REMARK   95  A    between atoms: _252  and  _254
REMARK   96  A    between atoms: _254  and  _255
REMARK   97  A    between atoms: _254  and  _257
REMARK   98  A    between atoms: _257  and  _258
REMARK   99  A    between atoms: _263  and  _265
REMARK  100  A    between atoms: _265  and  _266
REMARK  101  A    between atoms: _268  and  _270
REMARK  102  A    between atoms: _270  and  _271
REMARK  103  A    between atoms: _274  and  _276
REMARK  104  A    between atoms: _276  and  _277
REMARK  105  A    between atoms: _280  and  _282
REMARK  106  A    between atoms: _282  and  _283
REMARK  107  A    between atoms: _282  and  _285
REMARK  108  A    between atoms: _285  and  _286
REMARK  109  A    between atoms: _296  and  _298
REMARK  110  A    between atoms: _298  and  _299
REMARK  111  A    between atoms: _298  and  _301
REMARK  112  A    between atoms: _301  and  _302
REMARK  113  A    between atoms: _304  and  _306
REMARK  114  A    between atoms: _306  and  _307
REMARK  115  A    between atoms: _306  and  _309
REMARK  116  A    between atoms: _309  and  _310
REMARK  117  A    between atoms: _315  and  _317
REMARK  118  A    between atoms: _317  and  _318
REMARK  119  A    between atoms: _317  and  _320
REMARK  120  A    between atoms: _320  and  _321
REMARK  121  A    between atoms: _327  and  _329
REMARK  122  A    between atoms: _329  and  _330
REMARK  123  A    between atoms: _329  and  _332
REMARK  124  A    between atoms: _332  and  _333
REMARK  125  A    between atoms: _333  and  _334
REMARK  126  A    between atoms: _337  and  _339
REMARK  127  A    between atoms: _339  and  _340
REMARK  128  A    between atoms: _339  and  _342
REMARK  129  A    between atoms: _342  and  _343
REMARK  130  A    between atoms: _353  and  _355
REMARK  131  A    between atoms: _355  and  _356
REMARK  132  A    between atoms: _359  and  _361
REMARK  133  A    between atoms: _361  and  _362
REMARK  134  A    between atoms: _361  and  _364
REMARK  135  A    between atoms: _364  and  _365
REMARK  136  A    between atoms: _365  and  _366
REMARK  137  A    between atoms: _369  and  _371
REMARK  138  A    between atoms: _371  and  _372
REMARK  139  A    between atoms: _371  and  _374
REMARK  140  A    between atoms: _374  and  _375
REMARK  141  A    between atoms: _375  and  _376
REMARK  142  A    between atoms: _376  and  _377
REMARK  143  A    between atoms: _377  and  _378
REMARK  144  A    between atoms: _382  and  _384
REMARK  145  A    between atoms: _384  and  _385
REMARK  146  A    between atoms: _384  and  _387
REMARK  147  A    between atoms: _387  and  _388
REMARK                            x       y       z     vdW  Elec       q    Type
REMARK                         _______ _______ _______ _____ _____    ______ ____
ROOT
ATOM      1  NE  ARG A   1       0.352  19.908  11.483  0.00  0.00    -0.265 N 
ATOM      2  HE  ARG A   1       1.233  20.438  11.642  0.00  0.00    +0.259 HD
ATOM      3  CZ  ARG A   1       0.428  18.583  11.545  0.00  0.00    +0.342 C 
ATOM      4  NH2 ARG A   1       1.623  18.020  11.729  0.00  0.00    -0.292 N 
ATOM      5 HH21 ARG A   1       2.470  18.616  11.821  0.00  0.00    +0.255 HD
ATOM      6 HH22 ARG A   1       1.708  16.985  11.781  0.00  0.00    +0.255 HD
ATOM      7  NH1 ARG A   1      -0.659  17.813  11.432  0.00  0.00    -0.292 N 
ATOM      8 HH11 ARG A   1      -0.571  16.778  11.484  0.00  0.00    +0.255 HD
ATOM      9 HH12 ARG A   1      -1.593  18.249  11.292  0.00  0.00    +0.255 HD
ENDROOT
BRANCH   1  10
ATOM     10  CD  ARG A   1      -0.856  20.693  11.212  0.00  0.00    +0.174 C 
BRANCH  10  11
ATOM     11  CG  ARG A   1      -0.636  21.608   9.981  0.00  0.00    +0.045 C 
BRANCH  11  12
ATOM     12  CB  ARG A   1      -1.942  22.310   9.480  0.00  0.00    +0.029 C 
BRANCH  12  13
ATOM     13  CA  ARG A   1      -1.693  23.265   8.296  0.00  0.00    +0.133 C 
BRANCH  13  14
ATOM     14  N   ARG A   1      -2.902  23.943   7.876  0.00  0.00    -0.239 NA
ATOM     15  H   ARG A   1      -3.812  23.445   7.954  0.00  0.00    +0.142 HD
ENDBRANCH  13  14
BRANCH  13  16
ATOM     16  C   ARG A   1      -1.130  22.498   7.101  0.00  0.00    +0.224 C 
ATOM     17  O   ARG A   1      -1.787  21.609   6.536  0.00  0.00    -0.287 OA
ENDBRANCH  13  16
ENDBRANCH  12  13
ENDBRANCH  11  12
ENDBRANCH  10  11
ENDBRANCH   1  10
TORSDOF 6
REMARK  Name = ../refined-set-2016/2j77/2j77_pocket.pdb
REMARK  147 active torsions:
REMARK  status: ('A' for Active; 'I' for Inactive)
REMARK    1  A    between atoms: _1  and  _3
REMARK    2  A    between atoms: _3  and  _4
REMARK    3  A    between atoms: _7  and  _9
REMARK    4  A    between atoms: _9  and  _10
REMARK    5  A    between atoms: _9  and  _12
REMARK    6  A    between atoms: _12  and  _13
REMARK    7  A    between atoms: _16  and  _18
REMARK    8  A    between atoms: _18  and  _19
REMARK    9  A    between atoms: _22  and  _24
REMARK   10  A    between atoms: _24  and  _25
REMARK   11  A    between atoms: _24  and  _27
REMARK   12  A    between atoms: _27  and  _28
REMARK   13  A    between atoms: _28  and  _29
REMARK   14  A    between atoms: _34  and  _36
REMARK   15  A    between atoms: _36  and  _37
REMARK   16  A    between atoms: _36  and  _39
REMARK   17  A    between atoms: _39  and  _40
REMARK   18  A    between atoms: _40  and  _41
REMARK   19  A    between atoms: _41  and  _42
REMARK   20  A    between atoms: _51  and  _53
REMARK   21  A    between atoms: _53  and  _54
REMARK   22  A    between atoms: _53  and  _56
REMARK   23  A    between atoms: _56  and  _57
REMARK   24  A    between atoms: _60  and  _62
REMARK   25  A    between atoms: _62  and  _63
REMARK   26  A    between atoms: _62  and  _65
REMARK   27  A    between atoms: _65  and  _66
REMARK   28  A    between atoms: _71  and  _73
REMARK   29  A    between atoms: _73  and  _74
REMARK   30  A    between atoms: _73  and  _76
REMARK   31  A    between atoms: _76  and  _77
REMARK   32  A    between atoms: _87  and  _89
REMARK   33  A    between atoms: _89  and  _90
REMARK   34  A    between atoms: _89  and  _92
REMARK   35  A    between atoms: _92  and  _93
REMARK   36  A    between atoms: _98  and  _100
REMARK   37  A    between atoms: _100  and  _101
REMARK   38  A    between atoms: _100  and  _103
REMARK   39  A    between atoms: _103  and  _104
REMARK   40  A    between atoms: _104  and  _105
REMARK   41  A    between atoms: _108  and  _110
REMARK   42  A    between atoms: _110  and  _111
REMARK   43  A    between atoms: _110  and  _113
REMARK   44  A    between atoms: _116  and  _118
REMARK   45  A    between atoms: _118  and  _119
REMARK   46  A    between atoms: _118  and  _121
REMARK   47  A    between atoms: _121  and  _122
REMARK   48  A    between atoms: _127  and  _129
REMARK   49  A    between atoms: _129  and  _130
REMARK   50  A    between atoms: _129  and  _132
REMARK   51  A    between atoms: _135  and  _137
REMARK   52  A    between atoms: _137  and  _138
REMARK   53  A    between atoms: _137  and  _140
REMARK   54  A    between atoms: _140  and  _141
REMARK   55  A    between atoms: _147  and  _149
REMARK   56  A    between atoms: _149  and  _150
REMARK   57  A    between atoms: _149  and  _152
REMARK   58  A    between atoms: _152  and  _153
REMARK   59  A    between atoms: _158  and  _160
REMARK   60  A    between atoms: _160  and  _161
REMARK   61  A    between atoms: _160  and  _163
REMARK   62  A    between atoms: _163  and  _164
REMARK   63  A    between atoms: _169  and  _171
REMARK   64  A    between atoms: _171  and  _172
REMARK   65  A    between atoms: _171  and  _174
REMARK   66  A    between atoms: _174  and  _175
REMARK   67  A    between atoms: _180  and  _182
REMARK   68  A    between atoms: _182  and  _183
REMARK   69  A    between atoms: _182  and  _185
REMARK   70  A    between atoms: _185  and  _186
REMARK   71  A    between atoms: _191  and  _192
REMARK   72  A    between atoms: _194  and  _196
REMARK   73  A    between atoms: _196  and  _197
REMARK   74  A    between atoms: _196  and  _199
REMARK   75  A    between atoms: _199  and  _200
REMARK   76  A    between atoms: _205  and  _206
REMARK   77  A    between atoms: _208  and  _210
REMARK   78  A    between atoms: _210  and  _211
REMARK   79  A    between atoms: _210  and  _213
REMARK   80  A    between atoms: _213  and  _214
REMARK   81  A    between atoms: _214  and  _215
REMARK   82  A    between atoms: _217  and  _219
REMARK   83  A    between atoms: _219  and  _220
REMARK   84  A    between atoms: _219  and  _222
REMARK   85  A    between atoms: _222  and  _223
REMARK   86  A    between atoms: _233  and  _235
REMARK   87  A    between atoms: _235  and  _236
REMARK   88  A    between atoms: _235  and  _238
REMARK   89  A    between atoms: _238  and  _239
REMARK   90  A    between atoms: _242  and  _244
REMARK   91  A    between atoms: _244  and  _245
REMARK   92  A    between atoms: _244  and  _247
REMARK   93  A    between atoms: _247  and  _248
REMARK   94  A    between atoms: _248  and  _249
REMARK   95  A    between atoms: _252  and  _254
REMARK   96  A    between atoms: _254  and  _255
REMARK   97  A    between atoms: _254  and  _257
REMARK   98  A    between atoms: _257  and  _258
REMARK   99  A    between atoms: _263  and  _265
REMARK  100  A    between atoms: _265  and  _266
REMARK  101  A    between atoms: _268  and  _270
REMARK  102  A    between atoms: _270  and  _271
REMARK  103  A    between atoms: _274  and  _276
REMARK  104  A    between atoms: _276  and  _277
REMARK  105  A    between atoms: _280  and  _282
REMARK  106  A    between atoms: _282  and  _283
REMARK  107  A    between atoms: _282  and  _285
REMARK  108  A    between atoms: _285  and  _286
REMARK  109  A    between atoms: _296  and  _298
REMARK  110  A    between atoms: _298  and  _299
REMARK  111  A    between atoms: _298  and  _301
REMARK  112  A    between atoms: _301  and  _302
REMARK  113  A    between atoms: _304  and  _306
REMARK  114  A    between atoms: _306  and  _307
REMARK  115  A    between atoms: _306  and  _309
REMARK  116  A    between atoms: _309  and  _310
REMARK  117  A    between atoms: _315  and  _317
REMARK  118  A    between atoms: _317  and  _318
REMARK  119  A    between atoms: _317  and  _320
REMARK  120  A    between atoms: _320  and  _321
REMARK  121  A    between atoms: _327  and  _329
REMARK  122  A    between atoms: _329  and  _330
REMARK  123  A    between atoms: _329  and  _332
REMARK  124  A    between atoms: _332  and  _333
REMARK  125  A    between atoms: _333  and  _334
REMARK  126  A    between atoms: _337  and  _339
REMARK  127  A    between atoms: _339  and  _340
REMARK  128  A    between atoms: _339  and  _342
REMARK  129  A    between atoms: _342  and  _343
REMARK  130  A    between atoms: _353  and  _355
REMARK  131  A    between atoms: _355  and  _356
REMARK  132  A    between atoms: _359  and  _361
REMARK  133  A    between atoms: _361  and  _362
REMARK  134  A    between atoms: _361  and  _364
REMARK  135  A    between atoms: _364  and  _365
REMARK  136  A    between atoms: _365  and  _366
REMARK  137  A    between atoms: _369  and  _371
REMARK  138  A    between atoms: _371  and  _372
REMARK  139  A    between atoms: _371  and  _374
REMARK  140  A    between atoms: _374  and  _375
REMARK  141  A    between atoms: _375  and  _376
REMARK  142  A    between atoms: _376  and  _377
REMARK  143  A    between atoms: _377  and  _378
REMARK  144  A    between atoms: _382  and  _384
REMARK  145  A    between atoms: _384  and  _385
REMARK  146  A    between atoms: _384  and  _387
REMARK  147  A    between atoms: _387  and  _388
REMARK                            x       y       z     vdW  Elec       q    Type
REMARK                         _______ _______ _______ _____ _____    ______ ____
ROOT
ATOM      1  CA  THR A   1       5.000  21.792   9.876  0.00  0.00    +0.160 C 
ENDROOT
BRANCH   1   2
ATOM      2  N   THR A   1       4.237  22.923   9.358  0.00  0.00    -0.237 NA
ATOM      3  H   THR A   1       3.570  22.769   8.575  0.00  0.00    +0.142 HD
ENDBRANCH   1   2
BRANCH   1   4
ATOM      4  CB  THR A   1       4.253  20.483   9.646  0.00  0.00    +0.134 C 
ATOM      5  CG2 THR A   1       4.959  19.349  10.341  0.00  0.00    +0.034 C 
BRANCH   4   6
ATOM      6  OG1 THR A   1       2.913  20.614  10.154  0.00  0.00    -0.383 OA
ATOM      7  HG1 THR A   1       2.422  19.767  10.008  0.00  0.00    +0.210 HD
ENDBRANCH   4   6
ENDBRANCH   1   4
BRANCH   1   8
ATOM      8  C   THR A   1       6.350  21.754   9.180  0.00  0.00    +0.227 C 
ATOM      9  O   THR A   1       6.431  21.657   7.955  0.00  0.00    -0.287 OA
ENDBRANCH   1   8
TORSDOF 4
REMARK  Name = ../refined-set-2016/2j77/2j77_pocket.pdb
REMARK  147 active torsions:
REMARK  status: ('A' for Active; 'I' for Inactive)
REMARK    1  A    between atoms: _1  and  _3
REMARK    2  A    between atoms: _3  and  _4
REMARK    3  A    between atoms: _7  and  _9
REMARK    4  A    between atoms: _9  and  _10
REMARK    5  A    between atoms: _9  and  _12
REMARK    6  A    between atoms: _12  and  _13
REMARK    7  A    between atoms: _16  and  _18
REMARK    8  A    between atoms: _18  and  _19
REMARK    9  A    between atoms: _22  and  _24
REMARK   10  A    between atoms: _24  and  _25
REMARK   11  A    between atoms: _24  and  _27
REMARK   12  A    between atoms: _27  and  _28
REMARK   13  A    between atoms: _28  and  _29
REMARK   14  A    between atoms: _34  and  _36
REMARK   15  A    between atoms: _36  and  _37
REMARK   16  A    between atoms: _36  and  _39
REMARK   17  A    between atoms: _39  and  _40
REMARK   18  A    between atoms: _40  and  _41
REMARK   19  A    between atoms: _41  and  _42
REMARK   20  A    between atoms: _51  and  _53
REMARK   21  A    between atoms: _53  and  _54
REMARK   22  A    between atoms: _53  and  _56
REMARK   23  A    between atoms: _56  and  _57
REMARK   24  A    between atoms: _60  and  _62
REMARK   25  A    between atoms: _62  and  _63
REMARK   26  A    between atoms: _62  and  _65
REMARK   27  A    between atoms: _65  and  _66
REMARK   28  A    between atoms: _71  and  _73
REMARK   29  A    between atoms: _73  and  _74
REMARK   30  A    between atoms: _73  and  _76
REMARK   31  A    between atoms: _76  and  _77
REMARK   32  A    between atoms: _87  and  _89
REMARK   33  A    between atoms: _89  and  _90
REMARK   34  A    between atoms: _89  and  _92
REMARK   35  A    between atoms: _92  and  _93
REMARK   36  A    between atoms: _98  and  _100
REMARK   37  A    between atoms: _100  and  _101
REMARK   38  A    between atoms: _100  and  _103
REMARK   39  A    between atoms: _103  and  _104
REMARK   40  A    between atoms: _104  and  _105
REMARK   41  A    between atoms: _108  and  _110
REMARK   42  A    between atoms: _110  and  _111
REMARK   43  A    between atoms: _110  and  _113
REMARK   44  A    between atoms: _116  and  _118
REMARK   45  A    between atoms: _118  and  _119
REMARK   46  A    between atoms: _118  and  _121
REMARK   47  A    between atoms: _121  and  _122
REMARK   48  A    between atoms: _127  and  _129
REMARK   49  A    between atoms: _129  and  _130
REMARK   50  A    between atoms: _129  and  _132
REMARK   51  A    between atoms: _135  and  _137
REMARK   52  A    between atoms: _137  and  _138
REMARK   53  A    between atoms: _137  and  _140
REMARK   54  A    between atoms: _140  and  _141
REMARK   55  A    between atoms: _147  and  _149
REMARK   56  A    between atoms: _149  and  _150
REMARK   57  A    between atoms: _149  and  _152
REMARK   58  A    between atoms: _152  and  _153
REMARK   59  A    between atoms: _158  and  _160
REMARK   60  A    between atoms: _160  and  _161
REMARK   61  A    between atoms: _160  and  _163
REMARK   62  A    between atoms: _163  and  _164
REMARK   63  A    between atoms: _169  and  _171
REMARK   64  A    between atoms: _171  and  _172
REMARK   65  A    between atoms: _171  and  _174
REMARK   66  A    between atoms: _174  and  _175
REMARK   67  A    between atoms: _180  and  _182
REMARK   68  A    between atoms: _182  and  _183
REMARK   69  A    between atoms: _182  and  _185
REMARK   70  A    between atoms: _185  and  _186
REMARK   71  A    between atoms: _191  and  _192
REMARK   72  A    between atoms: _194  and  _196
REMARK   73  A    between atoms: _196  and  _197
REMARK   74  A    between atoms: _196  and  _199
REMARK   75  A    between atoms: _199  and  _200
REMARK   76  A    between atoms: _205  and  _206
REMARK   77  A    between atoms: _208  and  _210
REMARK   78  A    between atoms: _210  and  _211
REMARK   79  A    between atoms: _210  and  _213
REMARK   80  A    between atoms: _213  and  _214
REMARK   81  A    between atoms: _214  and  _215
REMARK   82  A    between atoms: _217  and  _219
REMARK   83  A    between atoms: _219  and  _220
REMARK   84  A    between atoms: _219  and  _222
REMARK   85  A    between atoms: _222  and  _223
REMARK   86  A    between atoms: _233  and  _235
REMARK   87  A    between atoms: _235  and  _236
REMARK   88  A    between atoms: _235  and  _238
REMARK   89  A    between atoms: _238  and  _239
REMARK   90  A    between atoms: _242  and  _244
REMARK   91  A    between atoms: _244  and  _245
REMARK   92  A    between atoms: _244  and  _247
REMARK   93  A    between atoms: _247  and  _248
REMARK   94  A    between atoms: _248  and  _249
REMARK   95  A    between atoms: _252  and  _254
REMARK   96  A    between atoms: _254  and  _255
REMARK   97  A    between atoms: _254  and  _257
REMARK   98  A    between atoms: _257  and  _258
REMARK   99  A    between atoms: _263  and  _265
REMARK  100  A    between atoms: _265  and  _266
REMARK  101  A    between atoms: _268  and  _270
REMARK  102  A    between atoms: _270  and  _271
REMARK  103  A    between atoms: _274  and  _276
REMARK  104  A    between atoms: _276  and  _277
REMARK  105  A    between atoms: _280  and  _282
REMARK  106  A    between atoms: _282  and  _283
REMARK  107  A    between atoms: _282  and  _285
REMARK  108  A    between atoms: _285  and  _286
REMARK  109  A    between atoms: _296  and  _298
REMARK  110  A    between atoms: _298  and  _299
REMARK  111  A    between atoms: _298  and  _301
REMARK  112  A    between atoms: _301  and  _302
REMARK  113  A    between atoms: _304  and  _306
REMARK  114  A    between atoms: _306  and  _307
REMARK  115  A    between atoms: _306  and  _309
REMARK  116  A    between atoms: _309  and  _310
REMARK  117  A    between atoms: _315  and  _317
REMARK  118  A    between atoms: _317  and  _318
REMARK  119  A    between atoms: _317  and  _320
REMARK  120  A    between atoms: _320  and  _321
REMARK  121  A    between atoms: _327  and  _329
REMARK  122  A    between atoms: _329  and  _330
REMARK  123  A    between atoms: _329  and  _332
REMARK  124  A    between atoms: _332  and  _333
REMARK  125  A    between atoms: _333  and  _334
REMARK  126  A    between atoms: _337  and  _339
REMARK  127  A    between atoms: _339  and  _340
REMARK  128  A    between atoms: _339  and  _342
REMARK  129  A    between atoms: _342  and  _343
REMARK  130  A    between atoms: _353  and  _355
REMARK  131  A    between atoms: _355  and  _356
REMARK  132  A    between atoms: _359  and  _361
REMARK  133  A    between atoms: _361  and  _362
REMARK  134  A    between atoms: _361  and  _364
REMARK  135  A    between atoms: _364  and  _365
REMARK  136  A    between atoms: _365  and  _366
REMARK  137  A    between atoms: _369  and  _371
REMARK  138  A    between atoms: _371  and  _372
REMARK  139  A    between atoms: _371  and  _374
REMARK  140  A    between atoms: _374  and  _375
REMARK  141  A    between atoms: _375  and  _376
REMARK  142  A    between atoms: _376  and  _377
REMARK  143  A    between atoms: _377  and  _378
REMARK  144  A    between atoms: _382  and  _384
REMARK  145  A    between atoms: _384  and  _385
REMARK  146  A    between atoms: _384  and  _387
REMARK  147  A    between atoms: _387  and  _388
REMARK                            x       y       z     vdW  Elec       q    Type
REMARK                         _______ _______ _______ _____ _____    ______ ____
ROOT
ATOM      1  CA  TRP A   2       8.770  12.802   7.419  0.00  0.00    +0.141 C 
ENDROOT
BRANCH   1   3
ATOM      2  C   HIS A   1       7.074  14.621   7.405  0.00  0.00    +0.239 C 
ATOM      3  N   TRP A   2       8.287  14.163   7.774  0.00  0.00    -0.298 N 
ATOM      4  H   TRP A   2       8.909  14.785   8.328  0.00  0.00    +0.150 HD
ATOM      5  O   HIS A   1       6.451  14.171   6.438  0.00  0.00    -0.274 OA
BRANCH   2   6
ATOM      6  CA  HIS A   1       6.506  15.786   8.232  0.00  0.00    +0.151 C 
BRANCH   6   7
ATOM      7  N   HIS A   1       7.528  16.838   8.270  0.00  0.00    -0.238 NA
ATOM      8  H   HIS A   1       7.876  17.237   7.375  0.00  0.00    +0.142 HD
ENDBRANCH   6   7
BRANCH   6   9
ATOM      9  CB  HIS A   1       5.224  16.333   7.597  0.00  0.00    +0.074 C 
BRANCH   9  10
ATOM     10  CG  HIS A   1       3.973  15.571   7.941  0.00  0.00    +0.082 A 
ATOM     11  ND1 HIS A   1       2.863  16.183   8.494  0.00  0.00    -0.227 NA
ATOM     12  CE1 HIS A   1       1.897  15.289   8.631  0.00  0.00    +0.199 A 
ATOM     13  NE2 HIS A   1       2.338  14.122   8.187  0.00  0.00    -0.221 NA
ATOM     14  CD2 HIS A   1       3.626  14.277   7.735  0.00  0.00    +0.115 A 
ENDBRANCH   9  10
ENDBRANCH   6   9
ENDBRANCH   2   6
ENDBRANCH   1   3
BRANCH   1  15
ATOM     15  C   TRP A   2       9.589  12.672   6.145  0.00  0.00    +0.227 C 
ATOM     16  O   TRP A   2      10.238  11.644   5.951  0.00  0.00    -0.286 OA
ENDBRANCH   1  15
BRANCH   1  17
ATOM     17  CB  TRP A   2       7.627  11.783   7.326  0.00  0.00    +0.056 C 
BRANCH  17  18
ATOM     18  CG  TRP A   2       6.739  11.669   8.537  0.00  0.00    -0.002 A 
ATOM     19  CD1 TRP A   2       6.769  12.424   9.696  0.00  0.00    +0.068 A 
ATOM     20  NE1 TRP A   2       5.762  12.013  10.558  0.00  0.00    -0.352 N 
ATOM     21  HE1 TRP A   2       5.572  12.402  11.504  0.00  0.00    +0.166 HD
ATOM     22  CE2 TRP A   2       5.059  11.003   9.946  0.00  0.00    +0.056 A 
ATOM     23  CZ2 TRP A   2       3.969  10.261  10.402  0.00  0.00    +0.017 A 
ATOM     24  CH2 TRP A   2       3.459   9.295   9.569  0.00  0.00    +0.001 A 
ATOM     25  CZ3 TRP A   2       4.009   9.047   8.313  0.00  0.00    +0.000 A 
ATOM     26  CE3 TRP A   2       5.109   9.774   7.852  0.00  0.00    +0.001 A 
ATOM     27  CD2 TRP A   2       5.651  10.769   8.676  0.00  0.00    +0.013 A 
ENDBRANCH  17  18
ENDBRANCH   1  17
TORSDOF 8
REMARK  Name = ../refined-set-2016/2j77/2j77_pocket.pdb
REMARK  147 active torsions:
REMARK  status: ('A' for Active; 'I' for Inactive)
REMARK    1  A    between atoms: _1  and  _3
REMARK    2  A    between atoms: _3  and  _4
REMARK    3  A    between atoms: _7  and  _9
REMARK    4  A    between atoms: _9  and  _10
REMARK    5  A    between atoms: _9  and  _12
REMARK    6  A    between atoms: _12  and  _13
REMARK    7  A    between atoms: _16  and  _18
REMARK    8  A    between atoms: _18  and  _19
REMARK    9  A    between atoms: _22  and  _24
REMARK   10  A    between atoms: _24  and  _25
REMARK   11  A    between atoms: _24  and  _27
REMARK   12  A    between atoms: _27  and  _28
REMARK   13  A    between atoms: _28  and  _29
REMARK   14  A    between atoms: _34  and  _36
REMARK   15  A    between atoms: _36  and  _37
REMARK   16  A    between atoms: _36  and  _39
REMARK   17  A    between atoms: _39  and  _40
REMARK   18  A    between atoms: _40  and  _41
REMARK   19  A    between atoms: _41  and  _42
REMARK   20  A    between atoms: _51  and  _53
REMARK   21  A    between atoms: _53  and  _54
REMARK   22  A    between atoms: _53  and  _56
REMARK   23  A    between atoms: _56  and  _57
REMARK   24  A    between atoms: _60  and  _62
REMARK   25  A    between atoms: _62  and  _63
REMARK   26  A    between atoms: _62  and  _65
REMARK   27  A    between atoms: _65  and  _66
REMARK   28  A    between atoms: _71  and  _73
REMARK   29  A    between atoms: _73  and  _74
REMARK   30  A    between atoms: _73  and  _76
REMARK   31  A    between atoms: _76  and  _77
REMARK   32  A    between atoms: _87  and  _89
REMARK   33  A    between atoms: _89  and  _90
REMARK   34  A    between atoms: _89  and  _92
REMARK   35  A    between atoms: _92  and  _93
REMARK   36  A    between atoms: _98  and  _100
REMARK   37  A    between atoms: _100  and  _101
REMARK   38  A    between atoms: _100  and  _103
REMARK   39  A    between atoms: _103  and  _104
REMARK   40  A    between atoms: _104  and  _105
REMARK   41  A    between atoms: _108  and  _110
REMARK   42  A    between atoms: _110  and  _111
REMARK   43  A    between atoms: _110  and  _113
REMARK   44  A    between atoms: _116  and  _118
REMARK   45  A    between atoms: _118  and  _119
REMARK   46  A    between atoms: _118  and  _121
REMARK   47  A    between atoms: _121  and  _122
REMARK   48  A    between atoms: _127  and  _129
REMARK   49  A    between atoms: _129  and  _130
REMARK   50  A    between atoms: _129  and  _132
REMARK   51  A    between atoms: _135  and  _137
REMARK   52  A    between atoms: _137  and  _138
REMARK   53  A    between atoms: _137  and  _140
REMARK   54  A    between atoms: _140  and  _141
REMARK   55  A    between atoms: _147  and  _149
REMARK   56  A    between atoms: _149  and  _150
REMARK   57  A    between atoms: _149  and  _152
REMARK   58  A    between atoms: _152  and  _153
REMARK   59  A    between atoms: _158  and  _160
REMARK   60  A    between atoms: _160  and  _161
REMARK   61  A    between atoms: _160  and  _163
REMARK   62  A    between atoms: _163  and  _164
REMARK   63  A    between atoms: _169  and  _171
REMARK   64  A    between atoms: _171  and  _172
REMARK   65  A    between atoms: _171  and  _174
REMARK   66  A    between atoms: _174  and  _175
REMARK   67  A    between atoms: _180  and  _182
REMARK   68  A    between atoms: _182  and  _183
REMARK   69  A    between atoms: _182  and  _185
REMARK   70  A    between atoms: _185  and  _186
REMARK   71  A    between atoms: _191  and  _192
REMARK   72  A    between atoms: _194  and  _196
REMARK   73  A    between atoms: _196  and  _197
REMARK   74  A    between atoms: _196  and  _199
REMARK   75  A    between atoms: _199  and  _200
REMARK   76  A    between atoms: _205  and  _206
REMARK   77  A    between atoms: _208  and  _210
REMARK   78  A    between atoms: _210  and  _211
REMARK   79  A    between atoms: _210  and  _213
REMARK   80  A    between atoms: _213  and  _214
REMARK   81  A    between atoms: _214  and  _215
REMARK   82  A    between atoms: _217  and  _219
REMARK   83  A    between atoms: _219  and  _220
REMARK   84  A    between atoms: _219  and  _222
REMARK   85  A    between atoms: _222  and  _223
REMARK   86  A    between atoms: _233  and  _235
REMARK   87  A    between atoms: _235  and  _236
REMARK   88  A    between atoms: _235  and  _238
REMARK   89  A    between atoms: _238  and  _239
REMARK   90  A    between atoms: _242  and  _244
REMARK   91  A    between atoms: _244  and  _245
REMARK   92  A    between atoms: _244  and  _247
REMARK   93  A    between atoms: _247  and  _248
REMARK   94  A    between atoms: _248  and  _249
REMARK   95  A    between atoms: _252  and  _254
REMARK   96  A    between atoms: _254  and  _255
REMARK   97  A    between atoms: _254  and  _257
REMARK   98  A    between atoms: _257  and  _258
REMARK   99  A    between atoms: _263  and  _265
REMARK  100  A    between atoms: _265  and  _266
REMARK  101  A    between atoms: _268  and  _270
REMARK  102  A    between atoms: _270  and  _271
REMARK  103  A    between atoms: _274  and  _276
REMARK  104  A    between atoms: _276  and  _277
REMARK  105  A    between atoms: _280  and  _282
REMARK  106  A    between atoms: _282  and  _283
REMARK  107  A    between atoms: _282  and  _285
REMARK  108  A    between atoms: _285  and  _286
REMARK  109  A    between atoms: _296  and  _298
REMARK  110  A    between atoms: _298  and  _299
REMARK  111  A    between atoms: _298  and  _301
REMARK  112  A    between atoms: _301  and  _302
REMARK  113  A    between atoms: _304  and  _306
REMARK  114  A    between atoms: _306  and  _307
REMARK  115  A    between atoms: _306  and  _309
REMARK  116  A    between atoms: _309  and  _310
REMARK  117  A    between atoms: _315  and  _317
REMARK  118  A    between atoms: _317  and  _318
REMARK  119  A    between atoms: _317  and  _320
REMARK  120  A    between atoms: _320  and  _321
REMARK  121  A    between atoms: _327  and  _329
REMARK  122  A    between atoms: _329  and  _330
REMARK  123  A    between atoms: _329  and  _332
REMARK  124  A    between atoms: _332  and  _333
REMARK  125  A    between atoms: _333  and  _334
REMARK  126  A    between atoms: _337  and  _339
REMARK  127  A    between atoms: _339  and  _340
REMARK  128  A    between atoms: _339  and  _342
REMARK  129  A    between atoms: _342  and  _343
REMARK  130  A    between atoms: _353  and  _355
REMARK  131  A    between atoms: _355  and  _356
REMARK  132  A    between atoms: _359  and  _361
REMARK  133  A    between atoms: _361  and  _362
REMARK  134  A    between atoms: _361  and  _364
REMARK  135  A    between atoms: _364  and  _365
REMARK  136  A    between atoms: _365  and  _366
REMARK  137  A    between atoms: _369  and  _371
REMARK  138  A    between atoms: _371  and  _372
REMARK  139  A    between atoms: _371  and  _374
REMARK  140  A    between atoms: _374  and  _375
REMARK  141  A    between atoms: _375  and  _376
REMARK  142  A    between atoms: _376  and  _377
REMARK  143  A    between atoms: _377  and  _378
REMARK  144  A    between atoms: _382  and  _384
REMARK  145  A    between atoms: _384  and  _385
REMARK  146  A    between atoms: _384  and  _387
REMARK  147  A    between atoms: _387  and  _388
REMARK                            x       y       z     vdW  Elec       q    Type
REMARK                         _______ _______ _______ _____ _____    ______ ____
ROOT
ATOM      1  C   ASN A   1       5.261  14.320  13.628  0.00  0.00    +0.239 C 
ATOM      2  N   GLU A   2       4.555  13.878  14.669  0.00  0.00    -0.298 N 
ATOM      3  H   GLU A   2       3.977  14.559  15.202  0.00  0.00    +0.150 HD
ATOM      4  O   ASN A   1       6.030  13.611  12.996  0.00  0.00    -0.274 OA
ENDROOT
BRANCH   1   5
ATOM      5  CA  ASN A   1       4.998  15.746  13.194  0.00  0.00    +0.154 C 
BRANCH   5   6
ATOM      6  N   ASN A   1       6.219  16.558  13.205  0.00  0.00    -0.238 NA
ATOM      7  H   ASN A   1       6.825  16.560  12.360  0.00  0.00    +0.142 HD
ENDBRANCH   5   6
BRANCH   5   8
ATOM      8  CB  ASN A   1       4.366  15.690  11.795  0.00  0.00    +0.111 C 
BRANCH   8   9
ATOM      9  CG  ASN A   1       3.039  14.930  11.784  0.00  0.00    +0.221 C 
ATOM     10  OD1 ASN A   1       2.028  15.445  12.264  0.00  0.00    -0.275 OA
ATOM     11  ND2 ASN A   1       3.040  13.709  11.236  0.00  0.00    -0.329 N 
ATOM     12 HD21 ASN A   1       2.162  13.153  11.203  0.00  0.00    +0.145 HD
ATOM     13 HD22 ASN A   1       3.919  13.316  10.843  0.00  0.00    +0.145 HD
ENDBRANCH   8   9
ENDBRANCH   5   8
ENDBRANCH   1   5
BRANCH   2  14
ATOM     14  CA  GLU A   2       4.556  12.482  15.094  0.00  0.00    +0.137 C 
BRANCH  14  15
ATOM     15  C   GLU A   2       5.945  11.854  15.240  0.00  0.00    +0.227 C 
ATOM     16  O   GLU A   2       6.216  10.832  14.610  0.00  0.00    -0.286 OA
ENDBRANCH  14  15
BRANCH  14  17
ATOM     17  CB  GLU A   2       3.673  11.642  14.173  0.00  0.00    +0.039 C 
BRANCH  17  18
ATOM     18  CG  GLU A   2       2.242  12.169  14.146  0.00  0.00    +0.116 C 
BRANCH  18  19
ATOM     19  CD  GLU A   2       1.227  11.175  13.586  0.00  0.00    +0.365 C 
ATOM     20  OE2 GLU A   2       0.017  11.464  13.760  0.00  0.00    -0.246 OA
ATOM     21  OE1 GLU A   2       1.615  10.130  12.998  0.00  0.00    -0.246 OA
ENDBRANCH  18  19
ENDBRANCH  17  18
ENDBRANCH  14  17
ENDBRANCH   2  14
TORSDOF 9
REMARK  Name = ../refined-set-2016/2j77/2j77_pocket.pdb
REMARK  147 active torsions:
REMARK  status: ('A' for Active; 'I' for Inactive)
REMARK    1  A    between atoms: _1  and  _3
REMARK    2  A    between atoms: _3  and  _4
REMARK    3  A    between atoms: _7  and  _9
REMARK    4  A    between atoms: _9  and  _10
REMARK    5  A    between atoms: _9  and  _12
REMARK    6  A    between atoms: _12  and  _13
REMARK    7  A    between atoms: _16  and  _18
REMARK    8  A    between atoms: _18  and  _19
REMARK    9  A    between atoms: _22  and  _24
REMARK   10  A    between atoms: _24  and  _25
REMARK   11  A    between atoms: _24  and  _27
REMARK   12  A    between atoms: _27  and  _28
REMARK   13  A    between atoms: _28  and  _29
REMARK   14  A    between atoms: _34  and  _36
REMARK   15  A    between atoms: _36  and  _37
REMARK   16  A    between atoms: _36  and  _39
REMARK   17  A    between atoms: _39  and  _40
REMARK   18  A    between atoms: _40  and  _41
REMARK   19  A    between atoms: _41  and  _42
REMARK   20  A    between atoms: _51  and  _53
REMARK   21  A    between atoms: _53  and  _54
REMARK   22  A    between atoms: _53  and  _56
REMARK   23  A    between atoms: _56  and  _57
REMARK   24  A    between atoms: _60  and  _62
REMARK   25  A    between atoms: _62  and  _63
REMARK   26  A    between atoms: _62  and  _65
REMARK   27  A    between atoms: _65  and  _66
REMARK   28  A    between atoms: _71  and  _73
REMARK   29  A    between atoms: _73  and  _74
REMARK   30  A    between atoms: _73  and  _76
REMARK   31  A    between atoms: _76  and  _77
REMARK   32  A    between atoms: _87  and  _89
REMARK   33  A    between atoms: _89  and  _90
REMARK   34  A    between atoms: _89  and  _92
REMARK   35  A    between atoms: _92  and  _93
REMARK   36  A    between atoms: _98  and  _100
REMARK   37  A    between atoms: _100  and  _101
REMARK   38  A    between atoms: _100  and  _103
REMARK   39  A    between atoms: _103  and  _104
REMARK   40  A    between atoms: _104  and  _105
REMARK   41  A    between atoms: _108  and  _110
REMARK   42  A    between atoms: _110  and  _111
REMARK   43  A    between atoms: _110  and  _113
REMARK   44  A    between atoms: _116  and  _118
REMARK   45  A    between atoms: _118  and  _119
REMARK   46  A    between atoms: _118  and  _121
REMARK   47  A    between atoms: _121  and  _122
REMARK   48  A    between atoms: _127  and  _129
REMARK   49  A    between atoms: _129  and  _130
REMARK   50  A    between atoms: _129  and  _132
REMARK   51  A    between atoms: _135  and  _137
REMARK   52  A    between atoms: _137  and  _138
REMARK   53  A    between atoms: _137  and  _140
REMARK   54  A    between atoms: _140  and  _141
REMARK   55  A    between atoms: _147  and  _149
REMARK   56  A    between atoms: _149  and  _150
REMARK   57  A    between atoms: _149  and  _152
REMARK   58  A    between atoms: _152  and  _153
REMARK   59  A    between atoms: _158  and  _160
REMARK   60  A    between atoms: _160  and  _161
REMARK   61  A    between atoms: _160  and  _163
REMARK   62  A    between atoms: _163  and  _164
REMARK   63  A    between atoms: _169  and  _171
REMARK   64  A    between atoms: _171  and  _172
REMARK   65  A    between atoms: _171  and  _174
REMARK   66  A    between atoms: _174  and  _175
REMARK   67  A    between atoms: _180  and  _182
REMARK   68  A    between atoms: _182  and  _183
REMARK   69  A    between atoms: _182  and  _185
REMARK   70  A    between atoms: _185  and  _186
REMARK   71  A    between atoms: _191  and  _192
REMARK   72  A    between atoms: _194  and  _196
REMARK   73  A    between atoms: _196  and  _197
REMARK   74  A    between atoms: _196  and  _199
REMARK   75  A    between atoms: _199  and  _200
REMARK   76  A    between atoms: _205  and  _206
REMARK   77  A    between atoms: _208  and  _210
REMARK   78  A    between atoms: _210  and  _211
REMARK   79  A    between atoms: _210  and  _213
REMARK   80  A    between atoms: _213  and  _214
REMARK   81  A    between atoms: _214  and  _215
REMARK   82  A    between atoms: _217  and  _219
REMARK   83  A    between atoms: _219  and  _220
REMARK   84  A    between atoms: _219  and  _222
REMARK   85  A    between atoms: _222  and  _223
REMARK   86  A    between atoms: _233  and  _235
REMARK   87  A    between atoms: _235  and  _236
REMARK   88  A    between atoms: _235  and  _238
REMARK   89  A    between atoms: _238  and  _239
REMARK   90  A    between atoms: _242  and  _244
REMARK   91  A    between atoms: _244  and  _245
REMARK   92  A    between atoms: _244  and  _247
REMARK   93  A    between atoms: _247  and  _248
REMARK   94  A    between atoms: _248  and  _249
REMARK   95  A    between atoms: _252  and  _254
REMARK   96  A    between atoms: _254  and  _255
REMARK   97  A    between atoms: _254  and  _257
REMARK   98  A    between atoms: _257  and  _258
REMARK   99  A    between atoms: _263  and  _265
REMARK  100  A    between atoms: _265  and  _266
REMARK  101  A    between atoms: _268  and  _270
REMARK  102  A    between atoms: _270  and  _271
REMARK  103  A    between atoms: _274  and  _276
REMARK  104  A    between atoms: _276  and  _277
REMARK  105  A    between atoms: _280  and  _282
REMARK  106  A    between atoms: _282  and  _283
REMARK  107  A    between atoms: _282  and  _285
REMARK  108  A    between atoms: _285  and  _286
REMARK  109  A    between atoms: _296  and  _298
REMARK  110  A    between atoms: _298  and  _299
REMARK  111  A    between atoms: _298  and  _301
REMARK  112  A    between atoms: _301  and  _302
REMARK  113  A    between atoms: _304  and  _306
REMARK  114  A    between atoms: _306  and  _307
REMARK  115  A    between atoms: _306  and  _309
REMARK  116  A    between atoms: _309  and  _310
REMARK  117  A    between atoms: _315  and  _317
REMARK  118  A    between atoms: _317  and  _318
REMARK  119  A    between atoms: _317  and  _320
REMARK  120  A    between atoms: _320  and  _321
REMARK  121  A    between atoms: _327  and  _329
REMARK  122  A    between atoms: _329  and  _330
REMARK  123  A    between atoms: _329  and  _332
REMARK  124  A    between atoms: _332  and  _333
REMARK  125  A    between atoms: _333  and  _334
REMARK  126  A    between atoms: _337  and  _339
REMARK  127  A    between atoms: _339  and  _340
REMARK  128  A    between atoms: _339  and  _342
REMARK  129  A    between atoms: _342  and  _343
REMARK  130  A    between atoms: _353  and  _355
REMARK  131  A    between atoms: _355  and  _356
REMARK  132  A    between atoms: _359  and  _361
REMARK  133  A    between atoms: _361  and  _362
REMARK  134  A    between atoms: _361  and  _364
REMARK  135  A    between atoms: _364  and  _365
REMARK  136  A    between atoms: _365  and  _366
REMARK  137  A    between atoms: _369  and  _371
REMARK  138  A    between atoms: _371  and  _372
REMARK  139  A    between atoms: _371  and  _374
REMARK  140  A    between atoms: _374  and  _375
REMARK  141  A    between atoms: _375  and  _376
REMARK  142  A    between atoms: _376  and  _377
REMARK  143  A    between atoms: _377  and  _378
REMARK  144  A    between atoms: _382  and  _384
REMARK  145  A    between atoms: _384  and  _385
REMARK  146  A    between atoms: _384  and  _387
REMARK  147  A    between atoms: _387  and  _388
REMARK                            x       y       z     vdW  Elec       q    Type
REMARK                         _______ _______ _______ _____ _____    ______ ____
ROOT
ATOM      1  CA  VAL A   1       6.114   7.355  14.278  0.00  0.00    +0.133 C 
ENDROOT
BRANCH   1   2
ATOM      2  CB  VAL A   1       4.971   7.934  13.401  0.00  0.00    +0.023 C 
ATOM      3  CG2 VAL A   1       3.624   7.825  14.119  0.00  0.00    +0.002 C 
ATOM      4  CG1 VAL A   1       4.918   7.217  12.038  0.00  0.00    +0.002 C 
ENDBRANCH   1   2
BRANCH   1   5
ATOM      5  N   VAL A   1       6.233   8.072  15.544  0.00  0.00    -0.239 NA
ATOM      6  H   VAL A   1       5.638   8.908  15.712  0.00  0.00    +0.142 HD
ENDBRANCH   1   5
BRANCH   1   7
ATOM      7  C   VAL A   1       7.429   7.381  13.496  0.00  0.00    +0.224 C 
ATOM      8  O   VAL A   1       7.862   6.352  12.983  0.00  0.00    -0.287 OA
ENDBRANCH   1   7
TORSDOF 3
REMARK  Name = ../refined-set-2016/2j77/2j77_pocket.pdb
REMARK  147 active torsions:
REMARK  status: ('A' for Active; 'I' for Inactive)
REMARK    1  A    between atoms: _1  and  _3
REMARK    2  A    between atoms: _3  and  _4
REMARK    3  A    between atoms: _7  and  _9
REMARK    4  A    between atoms: _9  and  _10
REMARK    5  A    between atoms: _9  and  _12
REMARK    6  A    between atoms: _12  and  _13
REMARK    7  A    between atoms: _16  and  _18
REMARK    8  A    between atoms: _18  and  _19
REMARK    9  A    between atoms: _22  and  _24
REMARK   10  A    between atoms: _24  and  _25
REMARK   11  A    between atoms: _24  and  _27
REMARK   12  A    between atoms: _27  and  _28
REMARK   13  A    between atoms: _28  and  _29
REMARK   14  A    between atoms: _34  and  _36
REMARK   15  A    between atoms: _36  and  _37
REMARK   16  A    between atoms: _36  and  _39
REMARK   17  A    between atoms: _39  and  _40
REMARK   18  A    between atoms: _40  and  _41
REMARK   19  A    between atoms: _41  and  _42
REMARK   20  A    between atoms: _51  and  _53
REMARK   21  A    between atoms: _53  and  _54
REMARK   22  A    between atoms: _53  and  _56
REMARK   23  A    between atoms: _56  and  _57
REMARK   24  A    between atoms: _60  and  _62
REMARK   25  A    between atoms: _62  and  _63
REMARK   26  A    between atoms: _62  and  _65
REMARK   27  A    between atoms: _65  and  _66
REMARK   28  A    between atoms: _71  and  _73
REMARK   29  A    between atoms: _73  and  _74
REMARK   30  A    between atoms: _73  and  _76
REMARK   31  A    between atoms: _76  and  _77
REMARK   32  A    between atoms: _87  and  _89
REMARK   33  A    between atoms: _89  and  _90
REMARK   34  A    between atoms: _89  and  _92
REMARK   35  A    between atoms: _92  and  _93
REMARK   36  A    between atoms: _98  and  _100
REMARK   37  A    between atoms: _100  and  _101
REMARK   38  A    between atoms: _100  and  _103
REMARK   39  A    between atoms: _103  and  _104
REMARK   40  A    between atoms: _104  and  _105
REMARK   41  A    between atoms: _108  and  _110
REMARK   42  A    between atoms: _110  and  _111
REMARK   43  A    between atoms: _110  and  _113
REMARK   44  A    between atoms: _116  and  _118
REMARK   45  A    between atoms: _118  and  _119
REMARK   46  A    between atoms: _118  and  _121
REMARK   47  A    between atoms: _121  and  _122
REMARK   48  A    between atoms: _127  and  _129
REMARK   49  A    between atoms: _129  and  _130
REMARK   50  A    between atoms: _129  and  _132
REMARK   51  A    between atoms: _135  and  _137
REMARK   52  A    between atoms: _137  and  _138
REMARK   53  A    between atoms: _137  and  _140
REMARK   54  A    between atoms: _140  and  _141
REMARK   55  A    between atoms: _147  and  _149
REMARK   56  A    between atoms: _149  and  _150
REMARK   57  A    between atoms: _149  and  _152
REMARK   58  A    between atoms: _152  and  _153
REMARK   59  A    between atoms: _158  and  _160
REMARK   60  A    between atoms: _160  and  _161
REMARK   61  A    between atoms: _160  and  _163
REMARK   62  A    between atoms: _163  and  _164
REMARK   63  A    between atoms: _169  and  _171
REMARK   64  A    between atoms: _171  and  _172
REMARK   65  A    between atoms: _171  and  _174
REMARK   66  A    between atoms: _174  and  _175
REMARK   67  A    between atoms: _180  and  _182
REMARK   68  A    between atoms: _182  and  _183
REMARK   69  A    between atoms: _182  and  _185
REMARK   70  A    between atoms: _185  and  _186
REMARK   71  A    between atoms: _191  and  _192
REMARK   72  A    between atoms: _194  and  _196
REMARK   73  A    between atoms: _196  and  _197
REMARK   74  A    between atoms: _196  and  _199
REMARK   75  A    between atoms: _199  and  _200
REMARK   76  A    between atoms: _205  and  _206
REMARK   77  A    between atoms: _208  and  _210
REMARK   78  A    between atoms: _210  and  _211
REMARK   79  A    between atoms: _210  and  _213
REMARK   80  A    between atoms: _213  and  _214
REMARK   81  A    between atoms: _214  and  _215
REMARK   82  A    between atoms: _217  and  _219
REMARK   83  A    between atoms: _219  and  _220
REMARK   84  A    between atoms: _219  and  _222
REMARK   85  A    between atoms: _222  and  _223
REMARK   86  A    between atoms: _233  and  _235
REMARK   87  A    between atoms: _235  and  _236
REMARK   88  A    between atoms: _235  and  _238
REMARK   89  A    between atoms: _238  and  _239
REMARK   90  A    between atoms: _242  and  _244
REMARK   91  A    between atoms: _244  and  _245
REMARK   92  A    between atoms: _244  and  _247
REMARK   93  A    between atoms: _247  and  _248
REMARK   94  A    between atoms: _248  and  _249
REMARK   95  A    between atoms: _252  and  _254
REMARK   96  A    between atoms: _254  and  _255
REMARK   97  A    between atoms: _254  and  _257
REMARK   98  A    between atoms: _257  and  _258
REMARK   99  A    between atoms: _263  and  _265
REMARK  100  A    between atoms: _265  and  _266
REMARK  101  A    between atoms: _268  and  _270
REMARK  102  A    between atoms: _270  and  _271
REMARK  103  A    between atoms: _274  and  _276
REMARK  104  A    between atoms: _276  and  _277
REMARK  105  A    between atoms: _280  and  _282
REMARK  106  A    between atoms: _282  and  _283
REMARK  107  A    between atoms: _282  and  _285
REMARK  108  A    between atoms: _285  and  _286
REMARK  109  A    between atoms: _296  and  _298
REMARK  110  A    between atoms: _298  and  _299
REMARK  111  A    between atoms: _298  and  _301
REMARK  112  A    between atoms: _301  and  _302
REMARK  113  A    between atoms: _304  and  _306
REMARK  114  A    between atoms: _306  and  _307
REMARK  115  A    between atoms: _306  and  _309
REMARK  116  A    between atoms: _309  and  _310
REMARK  117  A    between atoms: _315  and  _317
REMARK  118  A    between atoms: _317  and  _318
REMARK  119  A    between atoms: _317  and  _320
REMARK  120  A    between atoms: _320  and  _321
REMARK  121  A    between atoms: _327  and  _329
REMARK  122  A    between atoms: _329  and  _330
REMARK  123  A    between atoms: _329  and  _332
REMARK  124  A    between atoms: _332  and  _333
REMARK  125  A    between atoms: _333  and  _334
REMARK  126  A    between atoms: _337  and  _339
REMARK  127  A    between atoms: _339  and  _340
REMARK  128  A    between atoms: _339  and  _342
REMARK  129  A    between atoms: _342  and  _343
REMARK  130  A    between atoms: _353  and  _355
REMARK  131  A    between atoms: _355  and  _356
REMARK  132  A    between atoms: _359  and  _361
REMARK  133  A    between atoms: _361  and  _362
REMARK  134  A    between atoms: _361  and  _364
REMARK  135  A    between atoms: _364  and  _365
REMARK  136  A    between atoms: _365  and  _366
REMARK  137  A    between atoms: _369  and  _371
REMARK  138  A    between atoms: _371  and  _372
REMARK  139  A    between atoms: _371  and  _374
REMARK  140  A    between atoms: _374  and  _375
REMARK  141  A    between atoms: _375  and  _376
REMARK  142  A    between atoms: _376  and  _377
REMARK  143  A    between atoms: _377  and  _378
REMARK  144  A    between atoms: _382  and  _384
REMARK  145  A    between atoms: _384  and  _385
REMARK  146  A    between atoms: _384  and  _387
REMARK  147  A    between atoms: _387  and  _388
REMARK                            x       y       z     vdW  Elec       q    Type
REMARK                         _______ _______ _______ _____ _____    ______ ____
ROOT
ATOM      1  CB  HIS A   1       7.532   4.789   8.022  0.00  0.00    +0.072 C 
ENDROOT
BRANCH   1   2
ATOM      2  CG  HIS A   1       6.034   4.877   8.077  0.00  0.00    +0.082 A 
ATOM      3  ND1 HIS A   1       5.371   5.812   8.841  0.00  0.00    -0.227 NA
ATOM      4  CE1 HIS A   1       4.065   5.643   8.701  0.00  0.00    +0.199 A 
ATOM      5  NE2 HIS A   1       3.857   4.649   7.855  0.00  0.00    -0.221 NA
ATOM      6  CD2 HIS A   1       5.071   4.141   7.464  0.00  0.00    +0.115 A 
ENDBRANCH   1   2
BRANCH   1   7
ATOM      7  CA  HIS A   1       8.052   3.711   7.055  0.00  0.00    +0.139 C 
BRANCH   7   8
ATOM      8  N   HIS A   1       7.948   2.384   7.650  0.00  0.00    -0.239 NA
ATOM      9  H   HIS A   1       8.439   2.197   8.547  0.00  0.00    +0.142 HD
ENDBRANCH   7   8
BRANCH   7  10
ATOM     10  C   HIS A   1       9.516   3.966   6.748  0.00  0.00    +0.224 C 
ATOM     11  O   HIS A   1      10.395   3.318   7.324  0.00  0.00    -0.287 OA
ENDBRANCH   7  10
ENDBRANCH   1   7
TORSDOF 4
REMARK  Name = ../refined-set-2016/2j77/2j77_pocket.pdb
REMARK  147 active torsions:
REMARK  status: ('A' for Active; 'I' for Inactive)
REMARK    1  A    between atoms: _1  and  _3
REMARK    2  A    between atoms: _3  and  _4
REMARK    3  A    between atoms: _7  and  _9
REMARK    4  A    between atoms: _9  and  _10
REMARK    5  A    between atoms: _9  and  _12
REMARK    6  A    between atoms: _12  and  _13
REMARK    7  A    between atoms: _16  and  _18
REMARK    8  A    between atoms: _18  and  _19
REMARK    9  A    between atoms: _22  and  _24
REMARK   10  A    between atoms: _24  and  _25
REMARK   11  A    between atoms: _24  and  _27
REMARK   12  A    between atoms: _27  and  _28
REMARK   13  A    between atoms: _28  and  _29
REMARK   14  A    between atoms: _34  and  _36
REMARK   15  A    between atoms: _36  and  _37
REMARK   16  A    between atoms: _36  and  _39
REMARK   17  A    between atoms: _39  and  _40
REMARK   18  A    between atoms: _40  and  _41
REMARK   19  A    between atoms: _41  and  _42
REMARK   20  A    between atoms: _51  and  _53
REMARK   21  A    between atoms: _53  and  _54
REMARK   22  A    between atoms: _53  and  _56
REMARK   23  A    between atoms: _56  and  _57
REMARK   24  A    between atoms: _60  and  _62
REMARK   25  A    between atoms: _62  and  _63
REMARK   26  A    between atoms: _62  and  _65
REMARK   27  A    between atoms: _65  and  _66
REMARK   28  A    between atoms: _71  and  _73
REMARK   29  A    between atoms: _73  and  _74
REMARK   30  A    between atoms: _73  and  _76
REMARK   31  A    between atoms: _76  and  _77
REMARK   32  A    between atoms: _87  and  _89
REMARK   33  A    between atoms: _89  and  _90
REMARK   34  A    between atoms: _89  and  _92
REMARK   35  A    between atoms: _92  and  _93
REMARK   36  A    between atoms: _98  and  _100
REMARK   37  A    between atoms: _100  and  _101
REMARK   38  A    between atoms: _100  and  _103
REMARK   39  A    between atoms: _103  and  _104
REMARK   40  A    between atoms: _104  and  _105
REMARK   41  A    between atoms: _108  and  _110
REMARK   42  A    between atoms: _110  and  _111
REMARK   43  A    between atoms: _110  and  _113
REMARK   44  A    between atoms: _116  and  _118
REMARK   45  A    between atoms: _118  and  _119
REMARK   46  A    between atoms: _118  and  _121
REMARK   47  A    between atoms: _121  and  _122
REMARK   48  A    between atoms: _127  and  _129
REMARK   49  A    between atoms: _129  and  _130
REMARK   50  A    between atoms: _129  and  _132
REMARK   51  A    between atoms: _135  and  _137
REMARK   52  A    between atoms: _137  and  _138
REMARK   53  A    between atoms: _137  and  _140
REMARK   54  A    between atoms: _140  and  _141
REMARK   55  A    between atoms: _147  and  _149
REMARK   56  A    between atoms: _149  and  _150
REMARK   57  A    between atoms: _149  and  _152
REMARK   58  A    between atoms: _152  and  _153
REMARK   59  A    between atoms: _158  and  _160
REMARK   60  A    between atoms: _160  and  _161
REMARK   61  A    between atoms: _160  and  _163
REMARK   62  A    between atoms: _163  and  _164
REMARK   63  A    between atoms: _169  and  _171
REMARK   64  A    between atoms: _171  and  _172
REMARK   65  A    between atoms: _171  and  _174
REMARK   66  A    between atoms: _174  and  _175
REMARK   67  A    between atoms: _180  and  _182
REMARK   68  A    between atoms: _182  and  _183
REMARK   69  A    between atoms: _182  and  _185
REMARK   70  A    between atoms: _185  and  _186
REMARK   71  A    between atoms: _191  and  _192
REMARK   72  A    between atoms: _194  and  _196
REMARK   73  A    between atoms: _196  and  _197
REMARK   74  A    between atoms: _196  and  _199
REMARK   75  A    between atoms: _199  and  _200
REMARK   76  A    between atoms: _205  and  _206
REMARK   77  A    between atoms: _208  and  _210
REMARK   78  A    between atoms: _210  and  _211
REMARK   79  A    between atoms: _210  and  _213
REMARK   80  A    between atoms: _213  and  _214
REMARK   81  A    between atoms: _214  and  _215
REMARK   82  A    between atoms: _217  and  _219
REMARK   83  A    between atoms: _219  and  _220
REMARK   84  A    between atoms: _219  and  _222
REMARK   85  A    between atoms: _222  and  _223
REMARK   86  A    between atoms: _233  and  _235
REMARK   87  A    between atoms: _235  and  _236
REMARK   88  A    between atoms: _235  and  _238
REMARK   89  A    between atoms: _238  and  _239
REMARK   90  A    between atoms: _242  and  _244
REMARK   91  A    between atoms: _244  and  _245
REMARK   92  A    between atoms: _244  and  _247
REMARK   93  A    between atoms: _247  and  _248
REMARK   94  A    between atoms: _248  and  _249
REMARK   95  A    between atoms: _252  and  _254
REMARK   96  A    between atoms: _254  and  _255
REMARK   97  A    between atoms: _254  and  _257
REMARK   98  A    between atoms: _257  and  _258
REMARK   99  A    between atoms: _263  and  _265
REMARK  100  A    between atoms: _265  and  _266
REMARK  101  A    between atoms: _268  and  _270
REMARK  102  A    between atoms: _270  and  _271
REMARK  103  A    between atoms: _274  and  _276
REMARK  104  A    between atoms: _276  and  _277
REMARK  105  A    between atoms: _280  and  _282
REMARK  106  A    between atoms: _282  and  _283
REMARK  107  A    between atoms: _282  and  _285
REMARK  108  A    between atoms: _285  and  _286
REMARK  109  A    between atoms: _296  and  _298
REMARK  110  A    between atoms: _298  and  _299
REMARK  111  A    between atoms: _298  and  _301
REMARK  112  A    between atoms: _301  and  _302
REMARK  113  A    between atoms: _304  and  _306
REMARK  114  A    between atoms: _306  and  _307
REMARK  115  A    between atoms: _306  and  _309
REMARK  116  A    between atoms: _309  and  _310
REMARK  117  A    between atoms: _315  and  _317
REMARK  118  A    between atoms: _317  and  _318
REMARK  119  A    between atoms: _317  and  _320
REMARK  120  A    between atoms: _320  and  _321
REMARK  121  A    between atoms: _327  and  _329
REMARK  122  A    between atoms: _329  and  _330
REMARK  123  A    between atoms: _329  and  _332
REMARK  124  A    between atoms: _332  and  _333
REMARK  125  A    between atoms: _333  and  _334
REMARK  126  A    between atoms: _337  and  _339
REMARK  127  A    between atoms: _339  and  _340
REMARK  128  A    between atoms: _339  and  _342
REMARK  129  A    between atoms: _342  and  _343
REMARK  130  A    between atoms: _353  and  _355
REMARK  131  A    between atoms: _355  and  _356
REMARK  132  A    between atoms: _359  and  _361
REMARK  133  A    between atoms: _361  and  _362
REMARK  134  A    between atoms: _361  and  _364
REMARK  135  A    between atoms: _364  and  _365
REMARK  136  A    between atoms: _365  and  _366
REMARK  137  A    between atoms: _369  and  _371
REMARK  138  A    between atoms: _371  and  _372
REMARK  139  A    between atoms: _371  and  _374
REMARK  140  A    between atoms: _374  and  _375
REMARK  141  A    between atoms: _375  and  _376
REMARK  142  A    between atoms: _376  and  _377
REMARK  143  A    between atoms: _377  and  _378
REMARK  144  A    between atoms: _382  and  _384
REMARK  145  A    between atoms: _384  and  _385
REMARK  146  A    between atoms: _384  and  _387
REMARK  147  A    between atoms: _387  and  _388
REMARK                            x       y       z     vdW  Elec       q    Type
REMARK                         _______ _______ _______ _____ _____    ______ ____
ROOT
ATOM      1  C   PHE A   2       0.990  13.173  18.204  0.00  0.00    +0.241 C 
ATOM      2  O   PHE A   2      -0.127  13.693  18.269  0.00  0.00    -0.273 OA
ATOM      3  N   ASN A   3       1.226  11.943  17.742  0.00  0.00    -0.297 N 
ATOM      4  H   ASN A   3       2.196  11.688  17.468  0.00  0.00    +0.150 HD
ENDROOT
BRANCH   1   5
ATOM      5  CA  PHE A   2       2.179  13.959  18.656  0.00  0.00    +0.153 C 
BRANCH   5   7
ATOM      6  C   VAL A   1       2.955  15.998  17.514  0.00  0.00    +0.238 C 
ATOM      7  N   PHE A   2       2.050  15.380  18.279  0.00  0.00    -0.297 N 
ATOM      8  H   PHE A   2       1.228  15.918  18.620  0.00  0.00    +0.150 HD
ATOM      9  O   VAL A   1       3.969  15.455  17.082  0.00  0.00    -0.274 OA
BRANCH   6  10
ATOM     10  CA  VAL A   1       2.693  17.451  17.191  0.00  0.00    +0.145 C 
BRANCH  10  11
ATOM     11  CB  VAL A   1       2.201  17.556  15.719  0.00  0.00    +0.025 C 
ATOM     12  CG2 VAL A   1       1.490  18.868  15.502  0.00  0.00    +0.002 C 
ATOM     13  CG1 VAL A   1       1.288  16.373  15.350  0.00  0.00    +0.002 C 
ENDBRANCH  10  11
BRANCH  10  14
ATOM     14  N   VAL A   1       3.897  18.265  17.419  0.00  0.00    -0.238 NA
ATOM     15  H   VAL A   1       4.738  18.052  16.845  0.00  0.00    +0.142 HD
ENDBRANCH  10  14
ENDBRANCH   6  10
ENDBRANCH   5   7
BRANCH   5  16
ATOM     16  CB  PHE A   2       2.295  13.836  20.186  0.00  0.00    +0.055 C 
BRANCH  16  17
ATOM     17  CG  PHE A   2       3.343  14.731  20.756  0.00  0.00    -0.020 A 
ATOM     18  CD2 PHE A   2       2.993  15.821  21.541  0.00  0.00    -0.004 A 
ATOM     19  CE2 PHE A   2       3.976  16.679  22.052  0.00  0.00    -0.000 A 
ATOM     20  CZ  PHE A   2       5.337  16.435  21.749  0.00  0.00    -0.000 A 
ATOM     21  CE1 PHE A   2       5.682  15.348  20.945  0.00  0.00    -0.000 A 
ATOM     22  CD1 PHE A   2       4.696  14.508  20.447  0.00  0.00    -0.004 A 
ENDBRANCH  16  17
ENDBRANCH   5  16
ENDBRANCH   1   5
BRANCH   3  23
ATOM     23  CA  ASN A   3       0.170  10.942  17.607  0.00  0.00    +0.158 C 
BRANCH  23  24
ATOM     24  C   ASN A   3      -0.232  10.469  19.005  0.00  0.00    +0.241 C 
ATOM     25  O   ASN A   3       0.597  10.419  19.934  0.00  0.00    -0.273 OA
ATOM     26  N   ASN A   4      -1.509  10.130  19.147  0.00  0.00    -0.298 N 
ATOM     27  H   ASN A   4      -2.139  10.190  18.322  0.00  0.00    +0.150 HD
BRANCH  26  28
ATOM     28  CA  ASN A   4      -2.062   9.674  20.428  0.00  0.00    +0.146 C 
BRANCH  28  29
ATOM     29  C   ASN A   4      -3.166   8.676  20.155  0.00  0.00    +0.227 C 
ATOM     30  O   ASN A   4      -3.989   8.908  19.283  0.00  0.00    -0.286 OA
ENDBRANCH  28  29
BRANCH  28  31
ATOM     31  CB  ASN A   4      -2.665  10.834  21.225  0.00  0.00    +0.112 C 
BRANCH  31  32
ATOM     32  CG  ASN A   4      -1.688  11.937  21.487  0.00  0.00    +0.222 C 
ATOM     33  OD1 ASN A   4      -0.919  11.889  22.438  0.00  0.00    -0.275 OA
ATOM     34  ND2 ASN A   4      -1.727  12.957  20.657  0.00  0.00    -0.329 N 
ATOM     35 HD21 ASN A   4      -1.088  13.765  20.796  0.00  0.00    +0.145 HD
ATOM     36 HD22 ASN A   4      -2.397  12.955  19.862  0.00  0.00    +0.145 HD
ENDBRANCH  31  32
ENDBRANCH  28  31
ENDBRANCH  26  28
ENDBRANCH  23  24
BRANCH  23  37
ATOM     37  CB  ASN A   3       0.614   9.712  16.786  0.00  0.00    +0.114 C 
BRANCH  37  38
ATOM     38  CG  ASN A   3       1.894   9.077  17.316  0.00  0.00    +0.222 C 
ATOM     39  ND2 ASN A   3       1.778   7.883  17.924  0.00  0.00    -0.329 N 
ATOM     40 HD21 ASN A   3       2.622   7.410  18.306  0.00  0.00    +0.145 HD
ATOM     41 HD22 ASN A   3       0.845   7.433  18.013  0.00  0.00    +0.145 HD
ATOM     42  OD1 ASN A   3       2.979   9.657  17.183  0.00  0.00    -0.275 OA
ENDBRANCH  37  38
ENDBRANCH  23  37
ENDBRANCH   3  23
TORSDOF 15
REMARK  Name = ../refined-set-2016/2j77/2j77_pocket.pdb
REMARK  147 active torsions:
REMARK  status: ('A' for Active; 'I' for Inactive)
REMARK    1  A    between atoms: _1  and  _3
REMARK    2  A    between atoms: _3  and  _4
REMARK    3  A    between atoms: _7  and  _9
REMARK    4  A    between atoms: _9  and  _10
REMARK    5  A    between atoms: _9  and  _12
REMARK    6  A    between atoms: _12  and  _13
REMARK    7  A    between atoms: _16  and  _18
REMARK    8  A    between atoms: _18  and  _19
REMARK    9  A    between atoms: _22  and  _24
REMARK   10  A    between atoms: _24  and  _25
REMARK   11  A    between atoms: _24  and  _27
REMARK   12  A    between atoms: _27  and  _28
REMARK   13  A    between atoms: _28  and  _29
REMARK   14  A    between atoms: _34  and  _36
REMARK   15  A    between atoms: _36  and  _37
REMARK   16  A    between atoms: _36  and  _39
REMARK   17  A    between atoms: _39  and  _40
REMARK   18  A    between atoms: _40  and  _41
REMARK   19  A    between atoms: _41  and  _42
REMARK   20  A    between atoms: _51  and  _53
REMARK   21  A    between atoms: _53  and  _54
REMARK   22  A    between atoms: _53  and  _56
REMARK   23  A    between atoms: _56  and  _57
REMARK   24  A    between atoms: _60  and  _62
REMARK   25  A    between atoms: _62  and  _63
REMARK   26  A    between atoms: _62  and  _65
REMARK   27  A    between atoms: _65  and  _66
REMARK   28  A    between atoms: _71  and  _73
REMARK   29  A    between atoms: _73  and  _74
REMARK   30  A    between atoms: _73  and  _76
REMARK   31  A    between atoms: _76  and  _77
REMARK   32  A    between atoms: _87  and  _89
REMARK   33  A    between atoms: _89  and  _90
REMARK   34  A    between atoms: _89  and  _92
REMARK   35  A    between atoms: _92  and  _93
REMARK   36  A    between atoms: _98  and  _100
REMARK   37  A    between atoms: _100  and  _101
REMARK   38  A    between atoms: _100  and  _103
REMARK   39  A    between atoms: _103  and  _104
REMARK   40  A    between atoms: _104  and  _105
REMARK   41  A    between atoms: _108  and  _110
REMARK   42  A    between atoms: _110  and  _111
REMARK   43  A    between atoms: _110  and  _113
REMARK   44  A    between atoms: _116  and  _118
REMARK   45  A    between atoms: _118  and  _119
REMARK   46  A    between atoms: _118  and  _121
REMARK   47  A    between atoms: _121  and  _122
REMARK   48  A    between atoms: _127  and  _129
REMARK   49  A    between atoms: _129  and  _130
REMARK   50  A    between atoms: _129  and  _132
REMARK   51  A    between atoms: _135  and  _137
REMARK   52  A    between atoms: _137  and  _138
REMARK   53  A    between atoms: _137  and  _140
REMARK   54  A    between atoms: _140  and  _141
REMARK   55  A    between atoms: _147  and  _149
REMARK   56  A    between atoms: _149  and  _150
REMARK   57  A    between atoms: _149  and  _152
REMARK   58  A    between atoms: _152  and  _153
REMARK   59  A    between atoms: _158  and  _160
REMARK   60  A    between atoms: _160  and  _161
REMARK   61  A    between atoms: _160  and  _163
REMARK   62  A    between atoms: _163  and  _164
REMARK   63  A    between atoms: _169  and  _171
REMARK   64  A    between atoms: _171  and  _172
REMARK   65  A    between atoms: _171  and  _174
REMARK   66  A    between atoms: _174  and  _175
REMARK   67  A    between atoms: _180  and  _182
REMARK   68  A    between atoms: _182  and  _183
REMARK   69  A    between atoms: _182  and  _185
REMARK   70  A    between atoms: _185  and  _186
REMARK   71  A    between atoms: _191  and  _192
REMARK   72  A    between atoms: _194  and  _196
REMARK   73  A    between atoms: _196  and  _197
REMARK   74  A    between atoms: _196  and  _199
REMARK   75  A    between atoms: _199  and  _200
REMARK   76  A    between atoms: _205  and  _206
REMARK   77  A    between atoms: _208  and  _210
REMARK   78  A    between atoms: _210  and  _211
REMARK   79  A    between atoms: _210  and  _213
REMARK   80  A    between atoms: _213  and  _214
REMARK   81  A    between atoms: _214  and  _215
REMARK   82  A    between atoms: _217  and  _219
REMARK   83  A    between atoms: _219  and  _220
REMARK   84  A    between atoms: _219  and  _222
REMARK   85  A    between atoms: _222  and  _223
REMARK   86  A    between atoms: _233  and  _235
REMARK   87  A    between atoms: _235  and  _236
REMARK   88  A    between atoms: _235  and  _238
REMARK   89  A    between atoms: _238  and  _239
REMARK   90  A    between atoms: _242  and  _244
REMARK   91  A    between atoms: _244  and  _245
REMARK   92  A    between atoms: _244  and  _247
REMARK   93  A    between atoms: _247  and  _248
REMARK   94  A    between atoms: _248  and  _249
REMARK   95  A    between atoms: _252  and  _254
REMARK   96  A    between atoms: _254  and  _255
REMARK   97  A    between atoms: _254  and  _257
REMARK   98  A    between atoms: _257  and  _258
REMARK   99  A    between atoms: _263  and  _265
REMARK  100  A    between atoms: _265  and  _266
REMARK  101  A    between atoms: _268  and  _270
REMARK  102  A    between atoms: _270  and  _271
REMARK  103  A    between atoms: _274  and  _276
REMARK  104  A    between atoms: _276  and  _277
REMARK  105  A    between atoms: _280  and  _282
REMARK  106  A    between atoms: _282  and  _283
REMARK  107  A    between atoms: _282  and  _285
REMARK  108  A    between atoms: _285  and  _286
REMARK  109  A    between atoms: _296  and  _298
REMARK  110  A    between atoms: _298  and  _299
REMARK  111  A    between atoms: _298  and  _301
REMARK  112  A    between atoms: _301  and  _302
REMARK  113  A    between atoms: _304  and  _306
REMARK  114  A    between atoms: _306  and  _307
REMARK  115  A    between atoms: _306  and  _309
REMARK  116  A    between atoms: _309  and  _310
REMARK  117  A    between atoms: _315  and  _317
REMARK  118  A    between atoms: _317  and  _318
REMARK  119  A    between atoms: _317  and  _320
REMARK  120  A    between atoms: _320  and  _321
REMARK  121  A    between atoms: _327  and  _329
REMARK  122  A    between atoms: _329  and  _330
REMARK  123  A    between atoms: _329  and  _332
REMARK  124  A    between atoms: _332  and  _333
REMARK  125  A    between atoms: _333  and  _334
REMARK  126  A    between atoms: _337  and  _339
REMARK  127  A    between atoms: _339  and  _340
REMARK  128  A    between atoms: _339  and  _342
REMARK  129  A    between atoms: _342  and  _343
REMARK  130  A    between atoms: _353  and  _355
REMARK  131  A    between atoms: _355  and  _356
REMARK  132  A    between atoms: _359  and  _361
REMARK  133  A    between atoms: _361  and  _362
REMARK  134  A    between atoms: _361  and  _364
REMARK  135  A    between atoms: _364  and  _365
REMARK  136  A    between atoms: _365  and  _366
REMARK  137  A    between atoms: _369  and  _371
REMARK  138  A    between atoms: _371  and  _372
REMARK  139  A    between atoms: _371  and  _374
REMARK  140  A    between atoms: _374  and  _375
REMARK  141  A    between atoms: _375  and  _376
REMARK  142  A    between atoms: _376  and  _377
REMARK  143  A    between atoms: _377  and  _378
REMARK  144  A    between atoms: _382  and  _384
REMARK  145  A    between atoms: _384  and  _385
REMARK  146  A    between atoms: _384  and  _387
REMARK  147  A    between atoms: _387  and  _388
REMARK                            x       y       z     vdW  Elec       q    Type
REMARK                         _______ _______ _______ _____ _____    ______ ____
ROOT
ATOM      1  CA  TYR A   2      -6.002  11.603  17.448  0.00  0.00    +0.153 C 
ENDROOT
BRANCH   1   4
ATOM      2  C   ASN A   1      -4.030  13.037  17.331  0.00  0.00    +0.239 C 
ATOM      3  O   ASN A   1      -3.510  12.521  18.303  0.00  0.00    -0.274 OA
ATOM      4  N   TYR A   2      -5.219  12.688  16.861  0.00  0.00    -0.297 N 
ATOM      5  H   TYR A   2      -5.608  13.204  16.046  0.00  0.00    +0.150 HD
BRANCH   2   6
ATOM      6  CA  ASN A   1      -3.325  14.158  16.607  0.00  0.00    +0.154 C 
BRANCH   6   7
ATOM      7  N   ASN A   1      -2.568  14.862  17.618  0.00  0.00    -0.238 NA
ATOM      8  H   ASN A   1      -1.647  14.478  17.912  0.00  0.00    +0.142 HD
ENDBRANCH   6   7
BRANCH   6   9
ATOM      9  CB  ASN A   1      -2.424  13.549  15.522  0.00  0.00    +0.111 C 
BRANCH   9  10
ATOM     10  CG  ASN A   1      -1.649  14.588  14.721  0.00  0.00    +0.221 C 
ATOM     11  OD1 ASN A   1      -1.941  15.794  14.743  0.00  0.00    -0.275 OA
ATOM     12  ND2 ASN A   1      -0.656  14.107  13.985  0.00  0.00    -0.329 N 
ATOM     13 HD21 ASN A   1      -0.446  13.088  13.997  0.00  0.00    +0.145 HD
ATOM     14 HD22 ASN A   1      -0.087  14.748  13.396  0.00  0.00    +0.145 HD
ENDBRANCH   9  10
ENDBRANCH   6   9
ENDBRANCH   2   6
ENDBRANCH   1   4
BRANCH   1  15
ATOM     15  C   TYR A   2      -6.967  11.009  16.407  0.00  0.00    +0.241 C 
ATOM     16  N   TYR A   3      -7.000   9.681  16.310  0.00  0.00    -0.298 N 
ATOM     17  H   TYR A   3      -6.424   9.118  16.968  0.00  0.00    +0.150 HD
ATOM     18  O   TYR A   2      -7.652  11.761  15.702  0.00  0.00    -0.273 OA
BRANCH  16  19
ATOM     19  CA  TYR A   3      -7.813   8.983  15.316  0.00  0.00    +0.141 C 
BRANCH  19  20
ATOM     20  C   TYR A   3      -8.660   7.876  15.941  0.00  0.00    +0.227 C 
ATOM     21  O   TYR A   3      -9.841   7.722  15.598  0.00  0.00    -0.286 OA
ENDBRANCH  19  20
BRANCH  19  22
ATOM     22  CB  TYR A   3      -6.931   8.360  14.206  0.00  0.00    +0.054 C 
BRANCH  22  23
ATOM     23  CG  TYR A   3      -6.327   9.389  13.283  0.00  0.00    -0.020 A 
ATOM     24  CD2 TYR A   3      -5.114  10.016  13.588  0.00  0.00    -0.001 A 
ATOM     25  CE2 TYR A   3      -4.573  10.991  12.744  0.00  0.00    +0.036 A 
ATOM     26  CZ  TYR A   3      -5.269  11.337  11.600  0.00  0.00    +0.134 A 
ATOM     27  CE1 TYR A   3      -6.482  10.739  11.297  0.00  0.00    +0.036 A 
ATOM     28  CD1 TYR A   3      -6.997   9.774  12.132  0.00  0.00    -0.001 A 
BRANCH  26  29
ATOM     29  OH  TYR A   3      -4.801  12.284  10.748  0.00  0.00    -0.506 OA
ATOM     30  HH  TYR A   3      -3.934  12.626  11.081  0.00  0.00    +0.292 HD
ENDBRANCH  26  29
ENDBRANCH  22  23
ENDBRANCH  19  22
ENDBRANCH  16  19
ENDBRANCH   1  15
BRANCH   1  31
ATOM     31  CB  TYR A   2      -6.802  12.087  18.678  0.00  0.00    +0.055 C 
BRANCH  31  32
ATOM     32  CG  TYR A   2      -7.675  10.976  19.173  0.00  0.00    -0.020 A 
ATOM     33  CD2 TYR A   2      -7.163  10.004  20.017  0.00  0.00    -0.001 A 
ATOM     34  CE2 TYR A   2      -7.934   8.948  20.422  0.00  0.00    +0.036 A 
ATOM     35  CZ  TYR A   2      -9.232   8.845  19.972  0.00  0.00    +0.134 A 
ATOM     36  CE1 TYR A   2      -9.765   9.780  19.121  0.00  0.00    +0.036 A 
ATOM     37  CD1 TYR A   2      -8.982  10.840  18.713  0.00  0.00    -0.001 A 
BRANCH  35  38
ATOM     38  OH  TYR A   2      -9.984   7.790  20.373  0.00  0.00    -0.506 OA
ATOM     39  HH  TYR A   2     -10.786   8.120  20.850  0.00  0.00    +0.292 HD
ENDBRANCH  35  38
ENDBRANCH  31  32
ENDBRANCH   1  31
TORSDOF 14
REMARK  Name = ../refined-set-2016/2j77/2j77_pocket.pdb
REMARK  147 active torsions:
REMARK  status: ('A' for Active; 'I' for Inactive)
REMARK    1  A    between atoms: _1  and  _3
REMARK    2  A    between atoms: _3  and  _4
REMARK    3  A    between atoms: _7  and  _9
REMARK    4  A    between atoms: _9  and  _10
REMARK    5  A    between atoms: _9  and  _12
REMARK    6  A    between atoms: _12  and  _13
REMARK    7  A    between atoms: _16  and  _18
REMARK    8  A    between atoms: _18  and  _19
REMARK    9  A    between atoms: _22  and  _24
REMARK   10  A    between atoms: _24  and  _25
REMARK   11  A    between atoms: _24  and  _27
REMARK   12  A    between atoms: _27  and  _28
REMARK   13  A    between atoms: _28  and  _29
REMARK   14  A    between atoms: _34  and  _36
REMARK   15  A    between atoms: _36  and  _37
REMARK   16  A    between atoms: _36  and  _39
REMARK   17  A    between atoms: _39  and  _40
REMARK   18  A    between atoms: _40  and  _41
REMARK   19  A    between atoms: _41  and  _42
REMARK   20  A    between atoms: _51  and  _53
REMARK   21  A    between atoms: _53  and  _54
REMARK   22  A    between atoms: _53  and  _56
REMARK   23  A    between atoms: _56  and  _57
REMARK   24  A    between atoms: _60  and  _62
REMARK   25  A    between atoms: _62  and  _63
REMARK   26  A    between atoms: _62  and  _65
REMARK   27  A    between atoms: _65  and  _66
REMARK   28  A    between atoms: _71  and  _73
REMARK   29  A    between atoms: _73  and  _74
REMARK   30  A    between atoms: _73  and  _76
REMARK   31  A    between atoms: _76  and  _77
REMARK   32  A    between atoms: _87  and  _89
REMARK   33  A    between atoms: _89  and  _90
REMARK   34  A    between atoms: _89  and  _92
REMARK   35  A    between atoms: _92  and  _93
REMARK   36  A    between atoms: _98  and  _100
REMARK   37  A    between atoms: _100  and  _101
REMARK   38  A    between atoms: _100  and  _103
REMARK   39  A    between atoms: _103  and  _104
REMARK   40  A    between atoms: _104  and  _105
REMARK   41  A    between atoms: _108  and  _110
REMARK   42  A    between atoms: _110  and  _111
REMARK   43  A    between atoms: _110  and  _113
REMARK   44  A    between atoms: _116  and  _118
REMARK   45  A    between atoms: _118  and  _119
REMARK   46  A    between atoms: _118  and  _121
REMARK   47  A    between atoms: _121  and  _122
REMARK   48  A    between atoms: _127  and  _129
REMARK   49  A    between atoms: _129  and  _130
REMARK   50  A    between atoms: _129  and  _132
REMARK   51  A    between atoms: _135  and  _137
REMARK   52  A    between atoms: _137  and  _138
REMARK   53  A    between atoms: _137  and  _140
REMARK   54  A    between atoms: _140  and  _141
REMARK   55  A    between atoms: _147  and  _149
REMARK   56  A    between atoms: _149  and  _150
REMARK   57  A    between atoms: _149  and  _152
REMARK   58  A    between atoms: _152  and  _153
REMARK   59  A    between atoms: _158  and  _160
REMARK   60  A    between atoms: _160  and  _161
REMARK   61  A    between atoms: _160  and  _163
REMARK   62  A    between atoms: _163  and  _164
REMARK   63  A    between atoms: _169  and  _171
REMARK   64  A    between atoms: _171  and  _172
REMARK   65  A    between atoms: _171  and  _174
REMARK   66  A    between atoms: _174  and  _175
REMARK   67  A    between atoms: _180  and  _182
REMARK   68  A    between atoms: _182  and  _183
REMARK   69  A    between atoms: _182  and  _185
REMARK   70  A    between atoms: _185  and  _186
REMARK   71  A    between atoms: _191  and  _192
REMARK   72  A    between atoms: _194  and  _196
REMARK   73  A    between atoms: _196  and  _197
REMARK   74  A    between atoms: _196  and  _199
REMARK   75  A    between atoms: _199  and  _200
REMARK   76  A    between atoms: _205  and  _206
REMARK   77  A    between atoms: _208  and  _210
REMARK   78  A    between atoms: _210  and  _211
REMARK   79  A    between atoms: _210  and  _213
REMARK   80  A    between atoms: _213  and  _214
REMARK   81  A    between atoms: _214  and  _215
REMARK   82  A    between atoms: _217  and  _219
REMARK   83  A    between atoms: _219  and  _220
REMARK   84  A    between atoms: _219  and  _222
REMARK   85  A    between atoms: _222  and  _223
REMARK   86  A    between atoms: _233  and  _235
REMARK   87  A    between atoms: _235  and  _236
REMARK   88  A    between atoms: _235  and  _238
REMARK   89  A    between atoms: _238  and  _239
REMARK   90  A    between atoms: _242  and  _244
REMARK   91  A    between atoms: _244  and  _245
REMARK   92  A    between atoms: _244  and  _247
REMARK   93  A    between atoms: _247  and  _248
REMARK   94  A    between atoms: _248  and  _249
REMARK   95  A    between atoms: _252  and  _254
REMARK   96  A    between atoms: _254  and  _255
REMARK   97  A    between atoms: _254  and  _257
REMARK   98  A    between atoms: _257  and  _258
REMARK   99  A    between atoms: _263  and  _265
REMARK  100  A    between atoms: _265  and  _266
REMARK  101  A    between atoms: _268  and  _270
REMARK  102  A    between atoms: _270  and  _271
REMARK  103  A    between atoms: _274  and  _276
REMARK  104  A    between atoms: _276  and  _277
REMARK  105  A    between atoms: _280  and  _282
REMARK  106  A    between atoms: _282  and  _283
REMARK  107  A    between atoms: _282  and  _285
REMARK  108  A    between atoms: _285  and  _286
REMARK  109  A    between atoms: _296  and  _298
REMARK  110  A    between atoms: _298  and  _299
REMARK  111  A    between atoms: _298  and  _301
REMARK  112  A    between atoms: _301  and  _302
REMARK  113  A    between atoms: _304  and  _306
REMARK  114  A    between atoms: _306  and  _307
REMARK  115  A    between atoms: _306  and  _309
REMARK  116  A    between atoms: _309  and  _310
REMARK  117  A    between atoms: _315  and  _317
REMARK  118  A    between atoms: _317  and  _318
REMARK  119  A    between atoms: _317  and  _320
REMARK  120  A    between atoms: _320  and  _321
REMARK  121  A    between atoms: _327  and  _329
REMARK  122  A    between atoms: _329  and  _330
REMARK  123  A    between atoms: _329  and  _332
REMARK  124  A    between atoms: _332  and  _333
REMARK  125  A    between atoms: _333  and  _334
REMARK  126  A    between atoms: _337  and  _339
REMARK  127  A    between atoms: _339  and  _340
REMARK  128  A    between atoms: _339  and  _342
REMARK  129  A    between atoms: _342  and  _343
REMARK  130  A    between atoms: _353  and  _355
REMARK  131  A    between atoms: _355  and  _356
REMARK  132  A    between atoms: _359  and  _361
REMARK  133  A    between atoms: _361  and  _362
REMARK  134  A    between atoms: _361  and  _364
REMARK  135  A    between atoms: _364  and  _365
REMARK  136  A    between atoms: _365  and  _366
REMARK  137  A    between atoms: _369  and  _371
REMARK  138  A    between atoms: _371  and  _372
REMARK  139  A    between atoms: _371  and  _374
REMARK  140  A    between atoms: _374  and  _375
REMARK  141  A    between atoms: _375  and  _376
REMARK  142  A    between atoms: _376  and  _377
REMARK  143  A    between atoms: _377  and  _378
REMARK  144  A    between atoms: _382  and  _384
REMARK  145  A    between atoms: _384  and  _385
REMARK  146  A    between atoms: _384  and  _387
REMARK  147  A    between atoms: _387  and  _388
REMARK                            x       y       z     vdW  Elec       q    Type
REMARK                         _______ _______ _______ _____ _____    ______ ____
ROOT
ATOM      1  CA  MET A   1      -7.826   1.597   8.237  0.00  0.00    +0.134 C 
ENDROOT
BRANCH   1   2
ATOM      2  N   MET A   1      -9.114   1.978   7.634  0.00  0.00    -0.239 NA
ATOM      3  H   MET A   1      -9.591   2.840   7.969  0.00  0.00    +0.142 HD
ENDBRANCH   1   2
BRANCH   1   4
ATOM      4  C   MET A   1      -7.997   0.401   9.177  0.00  0.00    +0.224 C 
ATOM      5  O   MET A   1      -7.014  -0.227   9.572  0.00  0.00    -0.287 OA
ENDBRANCH   1   4
BRANCH   1   6
ATOM      6  CB  MET A   1      -7.220   2.750   9.047  0.00  0.00    +0.037 C 
BRANCH   6   7
ATOM      7  CG  MET A   1      -6.890   4.036   8.279  0.00  0.00    +0.059 C 
BRANCH   7   8
ATOM      8  SD  MET A   1      -5.730   3.822   6.913  0.00  0.00    -0.139 S 
ATOM      9  CE  MET A   1      -4.186   3.484   7.731  0.00  0.00    +0.069 C 
ENDBRANCH   7   8
ENDBRANCH   6   7
ENDBRANCH   1   6
TORSDOF 5
REMARK  Name = ../refined-set-2016/2j77/2j77_pocket.pdb
REMARK  147 active torsions:
REMARK  status: ('A' for Active; 'I' for Inactive)
REMARK    1  A    between atoms: _1  and  _3
REMARK    2  A    between atoms: _3  and  _4
REMARK    3  A    between atoms: _7  and  _9
REMARK    4  A    between atoms: _9  and  _10
REMARK    5  A    between atoms: _9  and  _12
REMARK    6  A    between atoms: _12  and  _13
REMARK    7  A    between atoms: _16  and  _18
REMARK    8  A    between atoms: _18  and  _19
REMARK    9  A    between atoms: _22  and  _24
REMARK   10  A    between atoms: _24  and  _25
REMARK   11  A    between atoms: _24  and  _27
REMARK   12  A    between atoms: _27  and  _28
REMARK   13  A    between atoms: _28  and  _29
REMARK   14  A    between atoms: _34  and  _36
REMARK   15  A    between atoms: _36  and  _37
REMARK   16  A    between atoms: _36  and  _39
REMARK   17  A    between atoms: _39  and  _40
REMARK   18  A    between atoms: _40  and  _41
REMARK   19  A    between atoms: _41  and  _42
REMARK   20  A    between atoms: _51  and  _53
REMARK   21  A    between atoms: _53  and  _54
REMARK   22  A    between atoms: _53  and  _56
REMARK   23  A    between atoms: _56  and  _57
REMARK   24  A    between atoms: _60  and  _62
REMARK   25  A    between atoms: _62  and  _63
REMARK   26  A    between atoms: _62  and  _65
REMARK   27  A    between atoms: _65  and  _66
REMARK   28  A    between atoms: _71  and  _73
REMARK   29  A    between atoms: _73  and  _74
REMARK   30  A    between atoms: _73  and  _76
REMARK   31  A    between atoms: _76  and  _77
REMARK   32  A    between atoms: _87  and  _89
REMARK   33  A    between atoms: _89  and  _90
REMARK   34  A    between atoms: _89  and  _92
REMARK   35  A    between atoms: _92  and  _93
REMARK   36  A    between atoms: _98  and  _100
REMARK   37  A    between atoms: _100  and  _101
REMARK   38  A    between atoms: _100  and  _103
REMARK   39  A    between atoms: _103  and  _104
REMARK   40  A    between atoms: _104  and  _105
REMARK   41  A    between atoms: _108  and  _110
REMARK   42  A    between atoms: _110  and  _111
REMARK   43  A    between atoms: _110  and  _113
REMARK   44  A    between atoms: _116  and  _118
REMARK   45  A    between atoms: _118  and  _119
REMARK   46  A    between atoms: _118  and  _121
REMARK   47  A    between atoms: _121  and  _122
REMARK   48  A    between atoms: _127  and  _129
REMARK   49  A    between atoms: _129  and  _130
REMARK   50  A    between atoms: _129  and  _132
REMARK   51  A    between atoms: _135  and  _137
REMARK   52  A    between atoms: _137  and  _138
REMARK   53  A    between atoms: _137  and  _140
REMARK   54  A    between atoms: _140  and  _141
REMARK   55  A    between atoms: _147  and  _149
REMARK   56  A    between atoms: _149  and  _150
REMARK   57  A    between atoms: _149  and  _152
REMARK   58  A    between atoms: _152  and  _153
REMARK   59  A    between atoms: _158  and  _160
REMARK   60  A    between atoms: _160  and  _161
REMARK   61  A    between atoms: _160  and  _163
REMARK   62  A    between atoms: _163  and  _164
REMARK   63  A    between atoms: _169  and  _171
REMARK   64  A    between atoms: _171  and  _172
REMARK   65  A    between atoms: _171  and  _174
REMARK   66  A    between atoms: _174  and  _175
REMARK   67  A    between atoms: _180  and  _182
REMARK   68  A    between atoms: _182  and  _183
REMARK   69  A    between atoms: _182  and  _185
REMARK   70  A    between atoms: _185  and  _186
REMARK   71  A    between atoms: _191  and  _192
REMARK   72  A    between atoms: _194  and  _196
REMARK   73  A    between atoms: _196  and  _197
REMARK   74  A    between atoms: _196  and  _199
REMARK   75  A    between atoms: _199  and  _200
REMARK   76  A    between atoms: _205  and  _206
REMARK   77  A    between atoms: _208  and  _210
REMARK   78  A    between atoms: _210  and  _211
REMARK   79  A    between atoms: _210  and  _213
REMARK   80  A    between atoms: _213  and  _214
REMARK   81  A    between atoms: _214  and  _215
REMARK   82  A    between atoms: _217  and  _219
REMARK   83  A    between atoms: _219  and  _220
REMARK   84  A    between atoms: _219  and  _222
REMARK   85  A    between atoms: _222  and  _223
REMARK   86  A    between atoms: _233  and  _235
REMARK   87  A    between atoms: _235  and  _236
REMARK   88  A    between atoms: _235  and  _238
REMARK   89  A    between atoms: _238  and  _239
REMARK   90  A    between atoms: _242  and  _244
REMARK   91  A    between atoms: _244  and  _245
REMARK   92  A    between atoms: _244  and  _247
REMARK   93  A    between atoms: _247  and  _248
REMARK   94  A    between atoms: _248  and  _249
REMARK   95  A    between atoms: _252  and  _254
REMARK   96  A    between atoms: _254  and  _255
REMARK   97  A    between atoms: _254  and  _257
REMARK   98  A    between atoms: _257  and  _258
REMARK   99  A    between atoms: _263  and  _265
REMARK  100  A    between atoms: _265  and  _266
REMARK  101  A    between atoms: _268  and  _270
REMARK  102  A    between atoms: _270  and  _271
REMARK  103  A    between atoms: _274  and  _276
REMARK  104  A    between atoms: _276  and  _277
REMARK  105  A    between atoms: _280  and  _282
REMARK  106  A    between atoms: _282  and  _283
REMARK  107  A    between atoms: _282  and  _285
REMARK  108  A    between atoms: _285  and  _286
REMARK  109  A    between atoms: _296  and  _298
REMARK  110  A    between atoms: _298  and  _299
REMARK  111  A    between atoms: _298  and  _301
REMARK  112  A    between atoms: _301  and  _302
REMARK  113  A    between atoms: _304  and  _306
REMARK  114  A    between atoms: _306  and  _307
REMARK  115  A    between atoms: _306  and  _309
REMARK  116  A    between atoms: _309  and  _310
REMARK  117  A    between atoms: _315  and  _317
REMARK  118  A    between atoms: _317  and  _318
REMARK  119  A    between atoms: _317  and  _320
REMARK  120  A    between atoms: _320  and  _321
REMARK  121  A    between atoms: _327  and  _329
REMARK  122  A    between atoms: _329  and  _330
REMARK  123  A    between atoms: _329  and  _332
REMARK  124  A    between atoms: _332  and  _333
REMARK  125  A    between atoms: _333  and  _334
REMARK  126  A    between atoms: _337  and  _339
REMARK  127  A    between atoms: _339  and  _340
REMARK  128  A    between atoms: _339  and  _342
REMARK  129  A    between atoms: _342  and  _343
REMARK  130  A    between atoms: _353  and  _355
REMARK  131  A    between atoms: _355  and  _356
REMARK  132  A    between atoms: _359  and  _361
REMARK  133  A    between atoms: _361  and  _362
REMARK  134  A    between atoms: _361  and  _364
REMARK  135  A    between atoms: _364  and  _365
REMARK  136  A    between atoms: _365  and  _366
REMARK  137  A    between atoms: _369  and  _371
REMARK  138  A    between atoms: _371  and  _372
REMARK  139  A    between atoms: _371  and  _374
REMARK  140  A    between atoms: _374  and  _375
REMARK  141  A    between atoms: _375  and  _376
REMARK  142  A    between atoms: _376  and  _377
REMARK  143  A    between atoms: _377  and  _378
REMARK  144  A    between atoms: _382  and  _384
REMARK  145  A    between atoms: _384  and  _385
REMARK  146  A    between atoms: _384  and  _387
REMARK  147  A    between atoms: _387  and  _388
REMARK                            x       y       z     vdW  Elec       q    Type
REMARK                         _______ _______ _______ _____ _____    ______ ____
ROOT
ATOM      1  CG  TRP A   1      -7.132   3.177  12.540  0.00  0.00    -0.002 A 
ATOM      2  CD1 TRP A   1      -6.289   2.105  12.467  0.00  0.00    +0.068 A 
ATOM      3  NE1 TRP A   1      -5.114   2.465  11.893  0.00  0.00    -0.352 N 
ATOM      4  HE1 TRP A   1      -4.315   1.827  11.702  0.00  0.00    +0.166 HD
ATOM      5  CE2 TRP A   1      -5.148   3.805  11.605  0.00  0.00    +0.056 A 
ATOM      6  CZ2 TRP A   1      -4.180   4.625  11.019  0.00  0.00    +0.017 A 
ATOM      7  CH2 TRP A   1      -4.495   5.954  10.840  0.00  0.00    +0.001 A 
ATOM      8  CZ3 TRP A   1      -5.739   6.467  11.228  0.00  0.00    +0.000 A 
ATOM      9  CE3 TRP A   1      -6.701   5.647  11.815  0.00  0.00    +0.001 A 
ATOM     10  CD2 TRP A   1      -6.404   4.290  12.011  0.00  0.00    +0.013 A 
ENDROOT
BRANCH   1  11
ATOM     11  CB  TRP A   1      -8.533   3.190  13.123  0.00  0.00    +0.053 C 
BRANCH  11  12
ATOM     12  CA  TRP A   1      -9.137   1.795  13.337  0.00  0.00    +0.137 C 
BRANCH  12  13
ATOM     13  N   TRP A   1      -9.272   1.094  12.067  0.00  0.00    -0.239 NA
ATOM     14  H   TRP A   1      -9.310   1.647  11.187  0.00  0.00    +0.142 HD
ENDBRANCH  12  13
BRANCH  12  15
ATOM     15  C   TRP A   1     -10.515   1.915  14.011  0.00  0.00    +0.224 C 
ATOM     16  O   TRP A   1     -11.474   2.398  13.398  0.00  0.00    -0.287 OA
ENDBRANCH  12  15
ENDBRANCH  11  12
ENDBRANCH   1  11
TORSDOF 4
REMARK  Name = ../refined-set-2016/2j77/2j77_pocket.pdb
REMARK  147 active torsions:
REMARK  status: ('A' for Active; 'I' for Inactive)
REMARK    1  A    between atoms: _1  and  _3
REMARK    2  A    between atoms: _3  and  _4
REMARK    3  A    between atoms: _7  and  _9
REMARK    4  A    between atoms: _9  and  _10
REMARK    5  A    between atoms: _9  and  _12
REMARK    6  A    between atoms: _12  and  _13
REMARK    7  A    between atoms: _16  and  _18
REMARK    8  A    between atoms: _18  and  _19
REMARK    9  A    between atoms: _22  and  _24
REMARK   10  A    between atoms: _24  and  _25
REMARK   11  A    between atoms: _24  and  _27
REMARK   12  A    between atoms: _27  and  _28
REMARK   13  A    between atoms: _28  and  _29
REMARK   14  A    between atoms: _34  and  _36
REMARK   15  A    between atoms: _36  and  _37
REMARK   16  A    between atoms: _36  and  _39
REMARK   17  A    between atoms: _39  and  _40
REMARK   18  A    between atoms: _40  and  _41
REMARK   19  A    between atoms: _41  and  _42
REMARK   20  A    between atoms: _51  and  _53
REMARK   21  A    between atoms: _53  and  _54
REMARK   22  A    between atoms: _53  and  _56
REMARK   23  A    between atoms: _56  and  _57
REMARK   24  A    between atoms: _60  and  _62
REMARK   25  A    between atoms: _62  and  _63
REMARK   26  A    between atoms: _62  and  _65
REMARK   27  A    between atoms: _65  and  _66
REMARK   28  A    between atoms: _71  and  _73
REMARK   29  A    between atoms: _73  and  _74
REMARK   30  A    between atoms: _73  and  _76
REMARK   31  A    between atoms: _76  and  _77
REMARK   32  A    between atoms: _87  and  _89
REMARK   33  A    between atoms: _89  and  _90
REMARK   34  A    between atoms: _89  and  _92
REMARK   35  A    between atoms: _92  and  _93
REMARK   36  A    between atoms: _98  and  _100
REMARK   37  A    between atoms: _100  and  _101
REMARK   38  A    between atoms: _100  and  _103
REMARK   39  A    between atoms: _103  and  _104
REMARK   40  A    between atoms: _104  and  _105
REMARK   41  A    between atoms: _108  and  _110
REMARK   42  A    between atoms: _110  and  _111
REMARK   43  A    between atoms: _110  and  _113
REMARK   44  A    between atoms: _116  and  _118
REMARK   45  A    between atoms: _118  and  _119
REMARK   46  A    between atoms: _118  and  _121
REMARK   47  A    between atoms: _121  and  _122
REMARK   48  A    between atoms: _127  and  _129
REMARK   49  A    between atoms: _129  and  _130
REMARK   50  A    between atoms: _129  and  _132
REMARK   51  A    between atoms: _135  and  _137
REMARK   52  A    between atoms: _137  and  _138
REMARK   53  A    between atoms: _137  and  _140
REMARK   54  A    between atoms: _140  and  _141
REMARK   55  A    between atoms: _147  and  _149
REMARK   56  A    between atoms: _149  and  _150
REMARK   57  A    between atoms: _149  and  _152
REMARK   58  A    between atoms: _152  and  _153
REMARK   59  A    between atoms: _158  and  _160
REMARK   60  A    between atoms: _160  and  _161
REMARK   61  A    between atoms: _160  and  _163
REMARK   62  A    between atoms: _163  and  _164
REMARK   63  A    between atoms: _169  and  _171
REMARK   64  A    between atoms: _171  and  _172
REMARK   65  A    between atoms: _171  and  _174
REMARK   66  A    between atoms: _174  and  _175
REMARK   67  A    between atoms: _180  and  _182
REMARK   68  A    between atoms: _182  and  _183
REMARK   69  A    between atoms: _182  and  _185
REMARK   70  A    between atoms: _185  and  _186
REMARK   71  A    between atoms: _191  and  _192
REMARK   72  A    between atoms: _194  and  _196
REMARK   73  A    between atoms: _196  and  _197
REMARK   74  A    between atoms: _196  and  _199
REMARK   75  A    between atoms: _199  and  _200
REMARK   76  A    between atoms: _205  and  _206
REMARK   77  A    between atoms: _208  and  _210
REMARK   78  A    between atoms: _210  and  _211
REMARK   79  A    between atoms: _210  and  _213
REMARK   80  A    between atoms: _213  and  _214
REMARK   81  A    between atoms: _214  and  _215
REMARK   82  A    between atoms: _217  and  _219
REMARK   83  A    between atoms: _219  and  _220
REMARK   84  A    between atoms: _219  and  _222
REMARK   85  A    between atoms: _222  and  _223
REMARK   86  A    between atoms: _233  and  _235
REMARK   87  A    between atoms: _235  and  _236
REMARK   88  A    between atoms: _235  and  _238
REMARK   89  A    between atoms: _238  and  _239
REMARK   90  A    between atoms: _242  and  _244
REMARK   91  A    between atoms: _244  and  _245
REMARK   92  A    between atoms: _244  and  _247
REMARK   93  A    between atoms: _247  and  _248
REMARK   94  A    between atoms: _248  and  _249
REMARK   95  A    between atoms: _252  and  _254
REMARK   96  A    between atoms: _254  and  _255
REMARK   97  A    between atoms: _254  and  _257
REMARK   98  A    between atoms: _257  and  _258
REMARK   99  A    between atoms: _263  and  _265
REMARK  100  A    between atoms: _265  and  _266
REMARK  101  A    between atoms: _268  and  _270
REMARK  102  A    between atoms: _270  and  _271
REMARK  103  A    between atoms: _274  and  _276
REMARK  104  A    between atoms: _276  and  _277
REMARK  105  A    between atoms: _280  and  _282
REMARK  106  A    between atoms: _282  and  _283
REMARK  107  A    between atoms: _282  and  _285
REMARK  108  A    between atoms: _285  and  _286
REMARK  109  A    between atoms: _296  and  _298
REMARK  110  A    between atoms: _298  and  _299
REMARK  111  A    between atoms: _298  and  _301
REMARK  112  A    between atoms: _301  and  _302
REMARK  113  A    between atoms: _304  and  _306
REMARK  114  A    between atoms: _306  and  _307
REMARK  115  A    between atoms: _306  and  _309
REMARK  116  A    between atoms: _309  and  _310
REMARK  117  A    between atoms: _315  and  _317
REMARK  118  A    between atoms: _317  and  _318
REMARK  119  A    between atoms: _317  and  _320
REMARK  120  A    between atoms: _320  and  _321
REMARK  121  A    between atoms: _327  and  _329
REMARK  122  A    between atoms: _329  and  _330
REMARK  123  A    between atoms: _329  and  _332
REMARK  124  A    between atoms: _332  and  _333
REMARK  125  A    between atoms: _333  and  _334
REMARK  126  A    between atoms: _337  and  _339
REMARK  127  A    between atoms: _339  and  _340
REMARK  128  A    between atoms: _339  and  _342
REMARK  129  A    between atoms: _342  and  _343
REMARK  130  A    between atoms: _353  and  _355
REMARK  131  A    between atoms: _355  and  _356
REMARK  132  A    between atoms: _359  and  _361
REMARK  133  A    between atoms: _361  and  _362
REMARK  134  A    between atoms: _361  and  _364
REMARK  135  A    between atoms: _364  and  _365
REMARK  136  A    between atoms: _365  and  _366
REMARK  137  A    between atoms: _369  and  _371
REMARK  138  A    between atoms: _371  and  _372
REMARK  139  A    between atoms: _371  and  _374
REMARK  140  A    between atoms: _374  and  _375
REMARK  141  A    between atoms: _375  and  _376
REMARK  142  A    between atoms: _376  and  _377
REMARK  143  A    between atoms: _377  and  _378
REMARK  144  A    between atoms: _382  and  _384
REMARK  145  A    between atoms: _384  and  _385
REMARK  146  A    between atoms: _384  and  _387
REMARK  147  A    between atoms: _387  and  _388
REMARK                            x       y       z     vdW  Elec       q    Type
REMARK                         _______ _______ _______ _____ _____    ______ ____
ROOT
ATOM      1  CA  ASN A   3      -8.430  14.237  13.364  0.00  0.00    +0.158 C 
ENDROOT
BRANCH   1   2
ATOM      2  C   ASN A   3      -9.171  13.997  12.050  0.00  0.00    +0.241 C 
ATOM      3  N   GLY A   4      -9.501  12.752  11.750  0.00  0.00    -0.295 N 
ATOM      4  H   GLY A   4      -9.311  11.991  12.433  0.00  0.00    +0.150 HD
ATOM      5  O   ASN A   3      -9.430  14.937  11.301  0.00  0.00    -0.273 OA
BRANCH   3   6
ATOM      6  CA  GLY A   4     -10.124  12.435  10.481  0.00  0.00    +0.176 C 
BRANCH   6   7
ATOM      7  C   GLY A   4     -10.294  10.944  10.347  0.00  0.00    +0.243 C 
ATOM      8  O   GLY A   4     -10.004  10.216  11.280  0.00  0.00    -0.273 OA
ATOM      9  N   ALA A   5     -10.774  10.498   9.191  0.00  0.00    -0.297 N 
ATOM     10  H   ALA A   5     -10.939  11.175   8.419  0.00  0.00    +0.150 HD
BRANCH   9  11
ATOM     11  CA  ALA A   5     -11.079   9.079   8.969  0.00  0.00    +0.149 C 
ATOM     12  CB  ALA A   5     -12.466   8.707   9.532  0.00  0.00    +0.031 C 
BRANCH  11  13
ATOM     13  C   ALA A   5     -10.969   8.677   7.507  0.00  0.00    +0.241 C 
ATOM     14  N   ALA A   6     -10.556   7.432   7.284  0.00  0.00    -0.298 N 
ATOM     15  H   ALA A   6     -10.236   6.846   8.081  0.00  0.00    +0.150 HD
ATOM     16  O   ALA A   5     -11.224   9.484   6.605  0.00  0.00    -0.273 OA
BRANCH  14  17
ATOM     17  CA  ALA A   6     -10.547   6.881   5.939  0.00  0.00    +0.137 C 
ATOM     18  CB  ALA A   6      -9.303   6.043   5.676  0.00  0.00    +0.030 C 
BRANCH  17  19
ATOM     19  C   ALA A   6     -11.778   6.032   5.786  0.00  0.00    +0.227 C 
ATOM     20  O   ALA A   6     -12.018   5.126   6.597  0.00  0.00    -0.286 OA
ENDBRANCH  17  19
ENDBRANCH  14  17
ENDBRANCH  11  13
ENDBRANCH   9  11
ENDBRANCH   6   7
ENDBRANCH   3   6
ENDBRANCH   1   2
BRANCH   1  23
ATOM     21  C   GLU A   2      -6.223  15.369  13.732  0.00  0.00    +0.241 C 
ATOM     22  O   GLU A   2      -6.045  14.966  14.874  0.00  0.00    -0.273 OA
ATOM     23  N   ASN A   3      -7.326  15.150  13.012  0.00  0.00    -0.297 N 
ATOM     24  H   ASN A   3      -7.415  15.673  12.118  0.00  0.00    +0.150 HD
BRANCH  21  25
ATOM     25  CA  GLU A   2      -5.148  16.172  13.015  0.00  0.00    +0.149 C 
BRANCH  25  27
ATOM     26  C   THR A   1      -3.998  18.278  13.559  0.00  0.00    +0.241 C 
ATOM     27  N   GLU A   2      -4.589  17.148  13.937  0.00  0.00    -0.297 N 
ATOM     28  H   GLU A   2      -4.656  16.950  14.956  0.00  0.00    +0.150 HD
ATOM     29  O   THR A   1      -3.720  18.541  12.376  0.00  0.00    -0.274 OA
BRANCH  26  30
ATOM     30  CA  THR A   1      -3.656  19.275  14.683  0.00  0.00    +0.172 C 
BRANCH  30  31
ATOM     31  CB  THR A   1      -2.126  19.329  14.890  0.00  0.00    +0.135 C 
ATOM     32  CG2 THR A   1      -1.734  20.643  15.538  0.00  0.00    +0.034 C 
BRANCH  31  33
ATOM     33  OG1 THR A   1      -1.742  18.251  15.749  0.00  0.00    -0.383 OA
ATOM     34  HG1 THR A   1      -1.995  17.390  15.330  0.00  0.00    +0.210 HD
ENDBRANCH  31  33
ENDBRANCH  30  31
BRANCH  30  35
ATOM     35  N   THR A   1      -4.334  18.987  15.971  0.00  0.00    -0.236 NA
ATOM     36  H   THR A   1      -3.871  18.351  16.651  0.00  0.00    +0.142 HD
ENDBRANCH  30  35
ENDBRANCH  26  30
ENDBRANCH  25  27
BRANCH  25  37
ATOM     37  CB  GLU A   2      -4.113  15.165  12.514  0.00  0.00    +0.041 C 
BRANCH  37  38
ATOM     38  CG  GLU A   2      -2.992  15.721  11.670  0.00  0.00    +0.116 C 
BRANCH  38  39
ATOM     39  CD  GLU A   2      -2.084  14.634  11.123  0.00  0.00    +0.365 C 
ATOM     40  OE2 GLU A   2      -2.508  13.462  11.005  0.00  0.00    -0.246 OA
ATOM     41  OE1 GLU A   2      -0.936  14.953  10.818  0.00  0.00    -0.246 OA
ENDBRANCH  38  39
ENDBRANCH  37  38
ENDBRANCH  25  37
ENDBRANCH  21  25
ENDBRANCH   1  23
BRANCH   1  42
ATOM     42  CB  ASN A   3      -9.365  14.876  14.414  0.00  0.00    +0.114 C 
BRANCH  42  43
ATOM     43  CG  ASN A   3     -10.573  13.994  14.775  0.00  0.00    +0.222 C 
ATOM     44  ND2 ASN A   3     -10.321  12.809  15.312  0.00  0.00    -0.329 N 
ATOM     45 HD21 ASN A   3     -11.106  12.177  15.568  0.00  0.00    +0.145 HD
ATOM     46 HD22 ASN A   3      -9.338  12.511  15.477  0.00  0.00    +0.145 HD
ATOM     47  OD1 ASN A   3     -11.720  14.395  14.558  0.00  0.00    -0.275 OA
ENDBRANCH  42  43
ENDBRANCH   1  42
TORSDOF 19
REMARK  Name = ../refined-set-2016/2j77/2j77_pocket.pdb
REMARK  147 active torsions:
REMARK  status: ('A' for Active; 'I' for Inactive)
REMARK    1  A    between atoms: _1  and  _3
REMARK    2  A    between atoms: _3  and  _4
REMARK    3  A    between atoms: _7  and  _9
REMARK    4  A    between atoms: _9  and  _10
REMARK    5  A    between atoms: _9  and  _12
REMARK    6  A    between atoms: _12  and  _13
REMARK    7  A    between atoms: _16  and  _18
REMARK    8  A    between atoms: _18  and  _19
REMARK    9  A    between atoms: _22  and  _24
REMARK   10  A    between atoms: _24  and  _25
REMARK   11  A    between atoms: _24  and  _27
REMARK   12  A    between atoms: _27  and  _28
REMARK   13  A    between atoms: _28  and  _29
REMARK   14  A    between atoms: _34  and  _36
REMARK   15  A    between atoms: _36  and  _37
REMARK   16  A    between atoms: _36  and  _39
REMARK   17  A    between atoms: _39  and  _40
REMARK   18  A    between atoms: _40  and  _41
REMARK   19  A    between atoms: _41  and  _42
REMARK   20  A    between atoms: _51  and  _53
REMARK   21  A    between atoms: _53  and  _54
REMARK   22  A    between atoms: _53  and  _56
REMARK   23  A    between atoms: _56  and  _57
REMARK   24  A    between atoms: _60  and  _62
REMARK   25  A    between atoms: _62  and  _63
REMARK   26  A    between atoms: _62  and  _65
REMARK   27  A    between atoms: _65  and  _66
REMARK   28  A    between atoms: _71  and  _73
REMARK   29  A    between atoms: _73  and  _74
REMARK   30  A    between atoms: _73  and  _76
REMARK   31  A    between atoms: _76  and  _77
REMARK   32  A    between atoms: _87  and  _89
REMARK   33  A    between atoms: _89  and  _90
REMARK   34  A    between atoms: _89  and  _92
REMARK   35  A    between atoms: _92  and  _93
REMARK   36  A    between atoms: _98  and  _100
REMARK   37  A    between atoms: _100  and  _101
REMARK   38  A    between atoms: _100  and  _103
REMARK   39  A    between atoms: _103  and  _104
REMARK   40  A    between atoms: _104  and  _105
REMARK   41  A    between atoms: _108  and  _110
REMARK   42  A    between atoms: _110  and  _111
REMARK   43  A    between atoms: _110  and  _113
REMARK   44  A    between atoms: _116  and  _118
REMARK   45  A    between atoms: _118  and  _119
REMARK   46  A    between atoms: _118  and  _121
REMARK   47  A    between atoms: _121  and  _122
REMARK   48  A    between atoms: _127  and  _129
REMARK   49  A    between atoms: _129  and  _130
REMARK   50  A    between atoms: _129  and  _132
REMARK   51  A    between atoms: _135  and  _137
REMARK   52  A    between atoms: _137  and  _138
REMARK   53  A    between atoms: _137  and  _140
REMARK   54  A    between atoms: _140  and  _141
REMARK   55  A    between atoms: _147  and  _149
REMARK   56  A    between atoms: _149  and  _150
REMARK   57  A    between atoms: _149  and  _152
REMARK   58  A    between atoms: _152  and  _153
REMARK   59  A    between atoms: _158  and  _160
REMARK   60  A    between atoms: _160  and  _161
REMARK   61  A    between atoms: _160  and  _163
REMARK   62  A    between atoms: _163  and  _164
REMARK   63  A    between atoms: _169  and  _171
REMARK   64  A    between atoms: _171  and  _172
REMARK   65  A    between atoms: _171  and  _174
REMARK   66  A    between atoms: _174  and  _175
REMARK   67  A    between atoms: _180  and  _182
REMARK   68  A    between atoms: _182  and  _183
REMARK   69  A    between atoms: _182  and  _185
REMARK   70  A    between atoms: _185  and  _186
REMARK   71  A    between atoms: _191  and  _192
REMARK   72  A    between atoms: _194  and  _196
REMARK   73  A    between atoms: _196  and  _197
REMARK   74  A    between atoms: _196  and  _199
REMARK   75  A    between atoms: _199  and  _200
REMARK   76  A    between atoms: _205  and  _206
REMARK   77  A    between atoms: _208  and  _210
REMARK   78  A    between atoms: _210  and  _211
REMARK   79  A    between atoms: _210  and  _213
REMARK   80  A    between atoms: _213  and  _214
REMARK   81  A    between atoms: _214  and  _215
REMARK   82  A    between atoms: _217  and  _219
REMARK   83  A    between atoms: _219  and  _220
REMARK   84  A    between atoms: _219  and  _222
REMARK   85  A    between atoms: _222  and  _223
REMARK   86  A    between atoms: _233  and  _235
REMARK   87  A    between atoms: _235  and  _236
REMARK   88  A    between atoms: _235  and  _238
REMARK   89  A    between atoms: _238  and  _239
REMARK   90  A    between atoms: _242  and  _244
REMARK   91  A    between atoms: _244  and  _245
REMARK   92  A    between atoms: _244  and  _247
REMARK   93  A    between atoms: _247  and  _248
REMARK   94  A    between atoms: _248  and  _249
REMARK   95  A    between atoms: _252  and  _254
REMARK   96  A    between atoms: _254  and  _255
REMARK   97  A    between atoms: _254  and  _257
REMARK   98  A    between atoms: _257  and  _258
REMARK   99  A    between atoms: _263  and  _265
REMARK  100  A    between atoms: _265  and  _266
REMARK  101  A    between atoms: _268  and  _270
REMARK  102  A    between atoms: _270  and  _271
REMARK  103  A    between atoms: _274  and  _276
REMARK  104  A    between atoms: _276  and  _277
REMARK  105  A    between atoms: _280  and  _282
REMARK  106  A    between atoms: _282  and  _283
REMARK  107  A    between atoms: _282  and  _285
REMARK  108  A    between atoms: _285  and  _286
REMARK  109  A    between atoms: _296  and  _298
REMARK  110  A    between atoms: _298  and  _299
REMARK  111  A    between atoms: _298  and  _301
REMARK  112  A    between atoms: _301  and  _302
REMARK  113  A    between atoms: _304  and  _306
REMARK  114  A    between atoms: _306  and  _307
REMARK  115  A    between atoms: _306  and  _309
REMARK  116  A    between atoms: _309  and  _310
REMARK  117  A    between atoms: _315  and  _317
REMARK  118  A    between atoms: _317  and  _318
REMARK  119  A    between atoms: _317  and  _320
REMARK  120  A    between atoms: _320  and  _321
REMARK  121  A    between atoms: _327  and  _329
REMARK  122  A    between atoms: _329  and  _330
REMARK  123  A    between atoms: _329  and  _332
REMARK  124  A    between atoms: _332  and  _333
REMARK  125  A    between atoms: _333  and  _334
REMARK  126  A    between atoms: _337  and  _339
REMARK  127  A    between atoms: _339  and  _340
REMARK  128  A    between atoms: _339  and  _342
REMARK  129  A    between atoms: _342  and  _343
REMARK  130  A    between atoms: _353  and  _355
REMARK  131  A    between atoms: _355  and  _356
REMARK  132  A    between atoms: _359  and  _361
REMARK  133  A    between atoms: _361  and  _362
REMARK  134  A    between atoms: _361  and  _364
REMARK  135  A    between atoms: _364  and  _365
REMARK  136  A    between atoms: _365  and  _366
REMARK  137  A    between atoms: _369  and  _371
REMARK  138  A    between atoms: _371  and  _372
REMARK  139  A    between atoms: _371  and  _374
REMARK  140  A    between atoms: _374  and  _375
REMARK  141  A    between atoms: _375  and  _376
REMARK  142  A    between atoms: _376  and  _377
REMARK  143  A    between atoms: _377  and  _378
REMARK  144  A    between atoms: _382  and  _384
REMARK  145  A    between atoms: _384  and  _385
REMARK  146  A    between atoms: _384  and  _387
REMARK  147  A    between atoms: _387  and  _388
REMARK                            x       y       z     vdW  Elec       q    Type
REMARK                         _______ _______ _______ _____ _____    ______ ____
ROOT
ATOM      1  CA  TRP A   1      -6.977  15.492   8.312  0.00  0.00    +0.149 C 
ENDROOT
BRANCH   1   2
ATOM      2  C   TRP A   1      -7.953  14.680   7.453  0.00  0.00    +0.239 C 
ATOM      3  O   TRP A   1      -8.651  13.811   7.990  0.00  0.00    -0.274 OA
ATOM      4  N   SER A   2      -8.025  14.948   6.145  0.00  0.00    -0.296 N 
ATOM      5  H   SER A   2      -8.746  14.443   5.591  0.00  0.00    +0.150 HD
BRANCH   4   6
ATOM      6  CA  SER A   2      -7.165  15.900   5.429  0.00  0.00    +0.166 C 
BRANCH   6   7
ATOM      7  C   SER A   2      -8.019  16.797   4.537  0.00  0.00    +0.229 C 
ATOM      8  O   SER A   2      -9.159  16.488   4.264  0.00  0.00    -0.286 OA
ENDBRANCH   6   7
BRANCH   6   9
ATOM      9  CB  SER A   2      -6.176  15.109   4.540  0.00  0.00    +0.165 C 
BRANCH   9  10
ATOM     10  OG  SER A   2      -5.288  15.965   3.840  0.00  0.00    -0.380 OA
ATOM     11  H   SER A   2      -4.763  16.496   4.490  0.00  0.00    +0.211 HD
ENDBRANCH   9  10
ENDBRANCH   6   9
ENDBRANCH   4   6
ENDBRANCH   1   2
BRANCH   1  12
ATOM     12  N   TRP A   1      -7.794  16.226   9.264  0.00  0.00    -0.238 NA
ATOM     13  H   TRP A   1      -8.122  15.762  10.135  0.00  0.00    +0.142 HD
ENDBRANCH   1  12
BRANCH   1  14
ATOM     14  CB  TRP A   1      -5.985  14.543   9.005  0.00  0.00    +0.054 C 
BRANCH  14  15
ATOM     15  CG  TRP A   1      -5.110  13.885   7.987  0.00  0.00    -0.002 A 
ATOM     16  CD2 TRP A   1      -3.854  14.383   7.506  0.00  0.00    +0.013 A 
ATOM     17  CE3 TRP A   1      -3.076  15.515   7.808  0.00  0.00    +0.001 A 
ATOM     18  CZ3 TRP A   1      -1.864  15.690   7.143  0.00  0.00    +0.000 A 
ATOM     19  CH2 TRP A   1      -1.437  14.776   6.153  0.00  0.00    +0.001 A 
ATOM     20  CZ2 TRP A   1      -2.190  13.676   5.827  0.00  0.00    +0.017 A 
ATOM     21  CE2 TRP A   1      -3.399  13.483   6.518  0.00  0.00    +0.056 A 
ATOM     22  NE1 TRP A   1      -4.341  12.484   6.407  0.00  0.00    -0.352 N 
ATOM     23  HE1 TRP A   1      -4.290  11.671   5.760  0.00  0.00    +0.166 HD
ATOM     24  CD1 TRP A   1      -5.368  12.742   7.301  0.00  0.00    +0.068 A 
ENDBRANCH  14  15
ENDBRANCH   1  14
TORSDOF 8
REMARK  Name = ../refined-set-2016/2j77/2j77_pocket.pdb
REMARK  147 active torsions:
REMARK  status: ('A' for Active; 'I' for Inactive)
REMARK    1  A    between atoms: _1  and  _3
REMARK    2  A    between atoms: _3  and  _4
REMARK    3  A    between atoms: _7  and  _9
REMARK    4  A    between atoms: _9  and  _10
REMARK    5  A    between atoms: _9  and  _12
REMARK    6  A    between atoms: _12  and  _13
REMARK    7  A    between atoms: _16  and  _18
REMARK    8  A    between atoms: _18  and  _19
REMARK    9  A    between atoms: _22  and  _24
REMARK   10  A    between atoms: _24  and  _25
REMARK   11  A    between atoms: _24  and  _27
REMARK   12  A    between atoms: _27  and  _28
REMARK   13  A    between atoms: _28  and  _29
REMARK   14  A    between atoms: _34  and  _36
REMARK   15  A    between atoms: _36  and  _37
REMARK   16  A    between atoms: _36  and  _39
REMARK   17  A    between atoms: _39  and  _40
REMARK   18  A    between atoms: _40  and  _41
REMARK   19  A    between atoms: _41  and  _42
REMARK   20  A    between atoms: _51  and  _53
REMARK   21  A    between atoms: _53  and  _54
REMARK   22  A    between atoms: _53  and  _56
REMARK   23  A    between atoms: _56  and  _57
REMARK   24  A    between atoms: _60  and  _62
REMARK   25  A    between atoms: _62  and  _63
REMARK   26  A    between atoms: _62  and  _65
REMARK   27  A    between atoms: _65  and  _66
REMARK   28  A    between atoms: _71  and  _73
REMARK   29  A    between atoms: _73  and  _74
REMARK   30  A    between atoms: _73  and  _76
REMARK   31  A    between atoms: _76  and  _77
REMARK   32  A    between atoms: _87  and  _89
REMARK   33  A    between atoms: _89  and  _90
REMARK   34  A    between atoms: _89  and  _92
REMARK   35  A    between atoms: _92  and  _93
REMARK   36  A    between atoms: _98  and  _100
REMARK   37  A    between atoms: _100  and  _101
REMARK   38  A    between atoms: _100  and  _103
REMARK   39  A    between atoms: _103  and  _104
REMARK   40  A    between atoms: _104  and  _105
REMARK   41  A    between atoms: _108  and  _110
REMARK   42  A    between atoms: _110  and  _111
REMARK   43  A    between atoms: _110  and  _113
REMARK   44  A    between atoms: _116  and  _118
REMARK   45  A    between atoms: _118  and  _119
REMARK   46  A    between atoms: _118  and  _121
REMARK   47  A    between atoms: _121  and  _122
REMARK   48  A    between atoms: _127  and  _129
REMARK   49  A    between atoms: _129  and  _130
REMARK   50  A    between atoms: _129  and  _132
REMARK   51  A    between atoms: _135  and  _137
REMARK   52  A    between atoms: _137  and  _138
REMARK   53  A    between atoms: _137  and  _140
REMARK   54  A    between atoms: _140  and  _141
REMARK   55  A    between atoms: _147  and  _149
REMARK   56  A    between atoms: _149  and  _150
REMARK   57  A    between atoms: _149  and  _152
REMARK   58  A    between atoms: _152  and  _153
REMARK   59  A    between atoms: _158  and  _160
REMARK   60  A    between atoms: _160  and  _161
REMARK   61  A    between atoms: _160  and  _163
REMARK   62  A    between atoms: _163  and  _164
REMARK   63  A    between atoms: _169  and  _171
REMARK   64  A    between atoms: _171  and  _172
REMARK   65  A    between atoms: _171  and  _174
REMARK   66  A    between atoms: _174  and  _175
REMARK   67  A    between atoms: _180  and  _182
REMARK   68  A    between atoms: _182  and  _183
REMARK   69  A    between atoms: _182  and  _185
REMARK   70  A    between atoms: _185  and  _186
REMARK   71  A    between atoms: _191  and  _192
REMARK   72  A    between atoms: _194  and  _196
REMARK   73  A    between atoms: _196  and  _197
REMARK   74  A    between atoms: _196  and  _199
REMARK   75  A    between atoms: _199  and  _200
REMARK   76  A    between atoms: _205  and  _206
REMARK   77  A    between atoms: _208  and  _210
REMARK   78  A    between atoms: _210  and  _211
REMARK   79  A    between atoms: _210  and  _213
REMARK   80  A    between atoms: _213  and  _214
REMARK   81  A    between atoms: _214  and  _215
REMARK   82  A    between atoms: _217  and  _219
REMARK   83  A    between atoms: _219  and  _220
REMARK   84  A    between atoms: _219  and  _222
REMARK   85  A    between atoms: _222  and  _223
REMARK   86  A    between atoms: _233  and  _235
REMARK   87  A    between atoms: _235  and  _236
REMARK   88  A    between atoms: _235  and  _238
REMARK   89  A    between atoms: _238  and  _239
REMARK   90  A    between atoms: _242  and  _244
REMARK   91  A    between atoms: _244  and  _245
REMARK   92  A    between atoms: _244  and  _247
REMARK   93  A    between atoms: _247  and  _248
REMARK   94  A    between atoms: _248  and  _249
REMARK   95  A    between atoms: _252  and  _254
REMARK   96  A    between atoms: _254  and  _255
REMARK   97  A    between atoms: _254  and  _257
REMARK   98  A    between atoms: _257  and  _258
REMARK   99  A    between atoms: _263  and  _265
REMARK  100  A    between atoms: _265  and  _266
REMARK  101  A    between atoms: _268  and  _270
REMARK  102  A    between atoms: _270  and  _271
REMARK  103  A    between atoms: _274  and  _276
REMARK  104  A    between atoms: _276  and  _277
REMARK  105  A    between atoms: _280  and  _282
REMARK  106  A    between atoms: _282  and  _283
REMARK  107  A    between atoms: _282  and  _285
REMARK  108  A    between atoms: _285  and  _286
REMARK  109  A    between atoms: _296  and  _298
REMARK  110  A    between atoms: _298  and  _299
REMARK  111  A    between atoms: _298  and  _301
REMARK  112  A    between atoms: _301  and  _302
REMARK  113  A    between atoms: _304  and  _306
REMARK  114  A    between atoms: _306  and  _307
REMARK  115  A    between atoms: _306  and  _309
REMARK  116  A    between atoms: _309  and  _310
REMARK  117  A    between atoms: _315  and  _317
REMARK  118  A    between atoms: _317  and  _318
REMARK  119  A    between atoms: _317  and  _320
REMARK  120  A    between atoms: _320  and  _321
REMARK  121  A    between atoms: _327  and  _329
REMARK  122  A    between atoms: _329  and  _330
REMARK  123  A    between atoms: _329  and  _332
REMARK  124  A    between atoms: _332  and  _333
REMARK  125  A    between atoms: _333  and  _334
REMARK  126  A    between atoms: _337  and  _339
REMARK  127  A    between atoms: _339  and  _340
REMARK  128  A    between atoms: _339  and  _342
REMARK  129  A    between atoms: _342  and  _343
REMARK  130  A    between atoms: _353  and  _355
REMARK  131  A    between atoms: _355  and  _356
REMARK  132  A    between atoms: _359  and  _361
REMARK  133  A    between atoms: _361  and  _362
REMARK  134  A    between atoms: _361  and  _364
REMARK  135  A    between atoms: _364  and  _365
REMARK  136  A    between atoms: _365  and  _366
REMARK  137  A    between atoms: _369  and  _371
REMARK  138  A    between atoms: _371  and  _372
REMARK  139  A    between atoms: _371  and  _374
REMARK  140  A    between atoms: _374  and  _375
REMARK  141  A    between atoms: _375  and  _376
REMARK  142  A    between atoms: _376  and  _377
REMARK  143  A    between atoms: _377  and  _378
REMARK  144  A    between atoms: _382  and  _384
REMARK  145  A    between atoms: _384  and  _385
REMARK  146  A    between atoms: _384  and  _387
REMARK  147  A    between atoms: _387  and  _388
REMARK                            x       y       z     vdW  Elec       q    Type
REMARK                         _______ _______ _______ _____ _____    ______ ____
ROOT
ATOM      1  C   GLU A   3      -0.135   6.530   3.060  0.00  0.00    +0.241 C 
ATOM      2  O   GLU A   3      -0.339   5.373   3.431  0.00  0.00    -0.273 OA
ATOM      3  N   TRP A   4       1.084   7.036   2.857  0.00  0.00    -0.297 N 
ATOM      4  H   TRP A   4       1.162   7.955   2.376  0.00  0.00    +0.150 HD
ENDROOT
BRANCH   3   5
ATOM      5  CA  TRP A   4       2.318   6.366   3.275  0.00  0.00    +0.153 C 
BRANCH   5   6
ATOM      6  C   TRP A   4       2.371   4.921   2.746  0.00  0.00    +0.241 C 
ATOM      7  N   ALA A   5       2.554   3.920   3.606  0.00  0.00    -0.297 N 
ATOM      8  H   ALA A   5       2.577   4.114   4.627  0.00  0.00    +0.150 HD
ATOM      9  O   TRP A   4       2.210   4.723   1.559  0.00  0.00    -0.273 OA
BRANCH   7  10
ATOM     10  CA  ALA A   5       2.722   2.551   3.124  0.00  0.00    +0.149 C 
ATOM     11  CB  ALA A   5       3.329   1.665   4.193  0.00  0.00    +0.031 C 
BRANCH  10  12
ATOM     12  C   ALA A   5       1.427   1.940   2.570  0.00  0.00    +0.241 C 
ATOM     13  N   GLU A   6       0.299   2.634   2.754  0.00  0.00    -0.298 N 
ATOM     14  H   GLU A   6       0.336   3.505   3.320  0.00  0.00    +0.150 HD
ATOM     15  O   ALA A   5       1.460   0.865   1.980  0.00  0.00    -0.273 OA
BRANCH  13  16
ATOM     16  CA  GLU A   6      -0.991   2.215   2.188  0.00  0.00    +0.137 C 
BRANCH  16  17
ATOM     17  C   GLU A   6      -1.180   2.754   0.784  0.00  0.00    +0.227 C 
ATOM     18  O   GLU A   6      -2.101   2.341   0.076  0.00  0.00    -0.286 OA
ENDBRANCH  16  17
BRANCH  16  19
ATOM     19  CB  GLU A   6      -2.153   2.738   3.050  0.00  0.00    +0.039 C 
BRANCH  19  20
ATOM     20  CG  GLU A   6      -2.185   2.229   4.432  0.00  0.00    +0.116 C 
BRANCH  20  21
ATOM     21  CD  GLU A   6      -2.552   0.758   4.481  0.00  0.00    +0.365 C 
ATOM     22  OE2 GLU A   6      -1.946   0.051   5.308  0.00  0.00    -0.246 OA
ATOM     23  OE1 GLU A   6      -3.444   0.319   3.703  0.00  0.00    -0.246 OA
ENDBRANCH  20  21
ENDBRANCH  19  20
ENDBRANCH  16  19
ENDBRANCH  13  16
ENDBRANCH  10  12
ENDBRANCH   7  10
ENDBRANCH   5   6
BRANCH   5  24
ATOM     24  CB  TRP A   4       2.506   6.525   4.802  0.00  0.00    +0.057 C 
BRANCH  24  25
ATOM     25  CG  TRP A   4       2.445   7.977   5.221  0.00  0.00    -0.002 A 
ATOM     26  CD1 TRP A   4       1.504   8.562   6.036  0.00  0.00    +0.068 A 
ATOM     27  NE1 TRP A   4       1.757   9.925   6.154  0.00  0.00    -0.352 N 
ATOM     28  HE1 TRP A   4       1.196  10.595   6.717  0.00  0.00    +0.166 HD
ATOM     29  CE2 TRP A   4       2.865  10.246   5.409  0.00  0.00    +0.056 A 
ATOM     30  CZ2 TRP A   4       3.498  11.485   5.218  0.00  0.00    +0.017 A 
ATOM     31  CH2 TRP A   4       4.578  11.518   4.382  0.00  0.00    +0.001 A 
ATOM     32  CZ3 TRP A   4       5.068  10.355   3.762  0.00  0.00    +0.000 A 
ATOM     33  CE3 TRP A   4       4.434   9.127   3.927  0.00  0.00    +0.001 A 
ATOM     34  CD2 TRP A   4       3.314   9.057   4.779  0.00  0.00    +0.013 A 
ENDBRANCH  24  25
ENDBRANCH   5  24
ENDBRANCH   3   5
BRANCH   1  35
ATOM     35  CA  GLU A   3      -1.288   7.471   2.736  0.00  0.00    +0.149 C 
BRANCH  35  38
ATOM     36  C   PHE A   2      -0.630   8.946   0.916  0.00  0.00    +0.241 C 
ATOM     37  O   PHE A   2      -0.017   9.658   1.684  0.00  0.00    -0.273 OA
ATOM     38  N   GLU A   3      -1.253   7.843   1.313  0.00  0.00    -0.297 N 
ATOM     39  H   GLU A   3      -1.721   7.235   0.611  0.00  0.00    +0.150 HD
BRANCH  36  40
ATOM     40  CA  PHE A   2      -0.726   9.310  -0.557  0.00  0.00    +0.153 C 
BRANCH  40  43
ATOM     41  C   ASN A   1      -2.921  10.427  -0.556  0.00  0.00    +0.239 C 
ATOM     42  O   ASN A   1      -3.522   9.386  -0.352  0.00  0.00    -0.274 OA
ATOM     43  N   PHE A   2      -1.604  10.495  -0.683  0.00  0.00    -0.297 N 
ATOM     44  H   PHE A   2      -1.169  11.419  -0.879  0.00  0.00    +0.150 HD
BRANCH  41  45
ATOM     45  CA  ASN A   1      -3.678  11.743  -0.698  0.00  0.00    +0.154 C 
BRANCH  45  46
ATOM     46  N   ASN A   1      -5.088  11.606  -0.386  0.00  0.00    -0.238 NA
ATOM     47  H   ASN A   1      -5.415  10.863   0.264  0.00  0.00    +0.142 HD
ENDBRANCH  45  46
BRANCH  45  48
ATOM     48  CB  ASN A   1      -3.036  12.884   0.135  0.00  0.00    +0.111 C 
BRANCH  48  49
ATOM     49  CG  ASN A   1      -3.184  12.674   1.613  0.00  0.00    +0.221 C 
ATOM     50  OD1 ASN A   1      -3.739  13.523   2.325  0.00  0.00    -0.275 OA
ATOM     51  ND2 ASN A   1      -2.731  11.533   2.089  0.00  0.00    -0.329 N 
ATOM     52 HD21 ASN A   1      -2.833  11.315   3.101  0.00  0.00    +0.145 HD
ATOM     53 HD22 ASN A   1      -2.272  10.850   1.453  0.00  0.00    +0.145 HD
ENDBRANCH  48  49
ENDBRANCH  45  48
ENDBRANCH  41  45
ENDBRANCH  40  43
BRANCH  40  54
ATOM     54  CB  PHE A   2       0.654   9.649  -1.139  0.00  0.00    +0.055 C 
BRANCH  54  55
ATOM     55  CG  PHE A   2       1.720   8.593  -0.915  0.00  0.00    -0.020 A 
ATOM     56  CD2 PHE A   2       2.666   8.749   0.101  0.00  0.00    -0.004 A 
ATOM     57  CE2 PHE A   2       3.674   7.772   0.293  0.00  0.00    -0.000 A 
ATOM     58  CZ  PHE A   2       3.754   6.658  -0.575  0.00  0.00    -0.000 A 
ATOM     59  CE1 PHE A   2       2.818   6.530  -1.599  0.00  0.00    -0.000 A 
ATOM     60  CD1 PHE A   2       1.814   7.495  -1.760  0.00  0.00    -0.004 A 
ENDBRANCH  54  55
ENDBRANCH  40  54
ENDBRANCH  36  40
ENDBRANCH  35  38
BRANCH  35  61
ATOM     61  CB  GLU A   3      -2.660   6.884   3.126  0.00  0.00    +0.041 C 
BRANCH  61  62
ATOM     62  CG  GLU A   3      -2.785   6.364   4.606  0.00  0.00    +0.116 C 
BRANCH  62  63
ATOM     63  CD  GLU A   3      -2.443   7.412   5.649  0.00  0.00    +0.365 C 
ATOM     64  OE2 GLU A   3      -1.895   7.033   6.716  0.00  0.00    -0.246 OA
ATOM     65  OE1 GLU A   3      -2.718   8.608   5.416  0.00  0.00    -0.246 OA
ENDBRANCH  62  63
ENDBRANCH  61  62
ENDBRANCH  35  61
ENDBRANCH   1  35
TORSDOF 24
REMARK  Name = ../refined-set-2016/2j77/2j77_pocket.pdb
REMARK  147 active torsions:
REMARK  status: ('A' for Active; 'I' for Inactive)
REMARK    1  A    between atoms: _1  and  _3
REMARK    2  A    between atoms: _3  and  _4
REMARK    3  A    between atoms: _7  and  _9
REMARK    4  A    between atoms: _9  and  _10
REMARK    5  A    between atoms: _9  and  _12
REMARK    6  A    between atoms: _12  and  _13
REMARK    7  A    between atoms: _16  and  _18
REMARK    8  A    between atoms: _18  and  _19
REMARK    9  A    between atoms: _22  and  _24
REMARK   10  A    between atoms: _24  and  _25
REMARK   11  A    between atoms: _24  and  _27
REMARK   12  A    between atoms: _27  and  _28
REMARK   13  A    between atoms: _28  and  _29
REMARK   14  A    between atoms: _34  and  _36
REMARK   15  A    between atoms: _36  and  _37
REMARK   16  A    between atoms: _36  and  _39
REMARK   17  A    between atoms: _39  and  _40
REMARK   18  A    between atoms: _40  and  _41
REMARK   19  A    between atoms: _41  and  _42
REMARK   20  A    between atoms: _51  and  _53
REMARK   21  A    between atoms: _53  and  _54
REMARK   22  A    between atoms: _53  and  _56
REMARK   23  A    between atoms: _56  and  _57
REMARK   24  A    between atoms: _60  and  _62
REMARK   25  A    between atoms: _62  and  _63
REMARK   26  A    between atoms: _62  and  _65
REMARK   27  A    between atoms: _65  and  _66
REMARK   28  A    between atoms: _71  and  _73
REMARK   29  A    between atoms: _73  and  _74
REMARK   30  A    between atoms: _73  and  _76
REMARK   31  A    between atoms: _76  and  _77
REMARK   32  A    between atoms: _87  and  _89
REMARK   33  A    between atoms: _89  and  _90
REMARK   34  A    between atoms: _89  and  _92
REMARK   35  A    between atoms: _92  and  _93
REMARK   36  A    between atoms: _98  and  _100
REMARK   37  A    between atoms: _100  and  _101
REMARK   38  A    between atoms: _100  and  _103
REMARK   39  A    between atoms: _103  and  _104
REMARK   40  A    between atoms: _104  and  _105
REMARK   41  A    between atoms: _108  and  _110
REMARK   42  A    between atoms: _110  and  _111
REMARK   43  A    between atoms: _110  and  _113
REMARK   44  A    between atoms: _116  and  _118
REMARK   45  A    between atoms: _118  and  _119
REMARK   46  A    between atoms: _118  and  _121
REMARK   47  A    between atoms: _121  and  _122
REMARK   48  A    between atoms: _127  and  _129
REMARK   49  A    between atoms: _129  and  _130
REMARK   50  A    between atoms: _129  and  _132
REMARK   51  A    between atoms: _135  and  _137
REMARK   52  A    between atoms: _137  and  _138
REMARK   53  A    between atoms: _137  and  _140
REMARK   54  A    between atoms: _140  and  _141
REMARK   55  A    between atoms: _147  and  _149
REMARK   56  A    between atoms: _149  and  _150
REMARK   57  A    between atoms: _149  and  _152
REMARK   58  A    between atoms: _152  and  _153
REMARK   59  A    between atoms: _158  and  _160
REMARK   60  A    between atoms: _160  and  _161
REMARK   61  A    between atoms: _160  and  _163
REMARK   62  A    between atoms: _163  and  _164
REMARK   63  A    between atoms: _169  and  _171
REMARK   64  A    between atoms: _171  and  _172
REMARK   65  A    between atoms: _171  and  _174
REMARK   66  A    between atoms: _174  and  _175
REMARK   67  A    between atoms: _180  and  _182
REMARK   68  A    between atoms: _182  and  _183
REMARK   69  A    between atoms: _182  and  _185
REMARK   70  A    between atoms: _185  and  _186
REMARK   71  A    between atoms: _191  and  _192
REMARK   72  A    between atoms: _194  and  _196
REMARK   73  A    between atoms: _196  and  _197
REMARK   74  A    between atoms: _196  and  _199
REMARK   75  A    between atoms: _199  and  _200
REMARK   76  A    between atoms: _205  and  _206
REMARK   77  A    between atoms: _208  and  _210
REMARK   78  A    between atoms: _210  and  _211
REMARK   79  A    between atoms: _210  and  _213
REMARK   80  A    between atoms: _213  and  _214
REMARK   81  A    between atoms: _214  and  _215
REMARK   82  A    between atoms: _217  and  _219
REMARK   83  A    between atoms: _219  and  _220
REMARK   84  A    between atoms: _219  and  _222
REMARK   85  A    between atoms: _222  and  _223
REMARK   86  A    between atoms: _233  and  _235
REMARK   87  A    between atoms: _235  and  _236
REMARK   88  A    between atoms: _235  and  _238
REMARK   89  A    between atoms: _238  and  _239
REMARK   90  A    between atoms: _242  and  _244
REMARK   91  A    between atoms: _244  and  _245
REMARK   92  A    between atoms: _244  and  _247
REMARK   93  A    between atoms: _247  and  _248
REMARK   94  A    between atoms: _248  and  _249
REMARK   95  A    between atoms: _252  and  _254
REMARK   96  A    between atoms: _254  and  _255
REMARK   97  A    between atoms: _254  and  _257
REMARK   98  A    between atoms: _257  and  _258
REMARK   99  A    between atoms: _263  and  _265
REMARK  100  A    between atoms: _265  and  _266
REMARK  101  A    between atoms: _268  and  _270
REMARK  102  A    between atoms: _270  and  _271
REMARK  103  A    between atoms: _274  and  _276
REMARK  104  A    between atoms: _276  and  _277
REMARK  105  A    between atoms: _280  and  _282
REMARK  106  A    between atoms: _282  and  _283
REMARK  107  A    between atoms: _282  and  _285
REMARK  108  A    between atoms: _285  and  _286
REMARK  109  A    between atoms: _296  and  _298
REMARK  110  A    between atoms: _298  and  _299
REMARK  111  A    between atoms: _298  and  _301
REMARK  112  A    between atoms: _301  and  _302
REMARK  113  A    between atoms: _304  and  _306
REMARK  114  A    between atoms: _306  and  _307
REMARK  115  A    between atoms: _306  and  _309
REMARK  116  A    between atoms: _309  and  _310
REMARK  117  A    between atoms: _315  and  _317
REMARK  118  A    between atoms: _317  and  _318
REMARK  119  A    between atoms: _317  and  _320
REMARK  120  A    between atoms: _320  and  _321
REMARK  121  A    between atoms: _327  and  _329
REMARK  122  A    between atoms: _329  and  _330
REMARK  123  A    between atoms: _329  and  _332
REMARK  124  A    between atoms: _332  and  _333
REMARK  125  A    between atoms: _333  and  _334
REMARK  126  A    between atoms: _337  and  _339
REMARK  127  A    between atoms: _339  and  _340
REMARK  128  A    between atoms: _339  and  _342
REMARK  129  A    between atoms: _342  and  _343
REMARK  130  A    between atoms: _353  and  _355
REMARK  131  A    between atoms: _355  and  _356
REMARK  132  A    between atoms: _359  and  _361
REMARK  133  A    between atoms: _361  and  _362
REMARK  134  A    between atoms: _361  and  _364
REMARK  135  A    between atoms: _364  and  _365
REMARK  136  A    between atoms: _365  and  _366
REMARK  137  A    between atoms: _369  and  _371
REMARK  138  A    between atoms: _371  and  _372
REMARK  139  A    between atoms: _371  and  _374
REMARK  140  A    between atoms: _374  and  _375
REMARK  141  A    between atoms: _375  and  _376
REMARK  142  A    between atoms: _376  and  _377
REMARK  143  A    between atoms: _377  and  _378
REMARK  144  A    between atoms: _382  and  _384
REMARK  145  A    between atoms: _384  and  _385
REMARK  146  A    between atoms: _384  and  _387
REMARK  147  A    between atoms: _387  and  _388
REMARK                            x       y       z     vdW  Elec       q    Type
REMARK                         _______ _______ _______ _____ _____    ______ ____
ROOT
ATOM      1  CG  LYS A   1      -5.766   3.399   3.459  0.00  0.00    -0.000 C 
ENDROOT
BRANCH   1   2
ATOM      2  CB  LYS A   1      -6.132   4.852   3.217  0.00  0.00    +0.025 C 
BRANCH   2   3
ATOM      3  CA  LYS A   1      -6.849   5.106   1.888  0.00  0.00    +0.133 C 
BRANCH   3   4
ATOM      4  N   LYS A   1      -6.110   4.568   0.738  0.00  0.00    -0.239 NA
ATOM      5  H   LYS A   1      -5.176   4.954   0.492  0.00  0.00    +0.142 HD
ENDBRANCH   3   4
BRANCH   3   6
ATOM      6  C   LYS A   1      -7.094   6.570   1.700  0.00  0.00    +0.224 C 
ATOM      7  O   LYS A   1      -6.149   7.369   1.643  0.00  0.00    -0.287 OA
ENDBRANCH   3   6
ENDBRANCH   2   3
ENDBRANCH   1   2
BRANCH   1   8
ATOM      8  CD  LYS A   1      -7.001   2.537   3.674  0.00  0.00    -0.024 C 
BRANCH   8   9
ATOM      9  CE  LYS A   1      -6.617   1.110   4.015  0.00  0.00    -0.086 C 
BRANCH   9  10
ATOM     10  NZ  LYS A   1      -6.472   0.294   2.794  0.00  0.00    +0.380 N 
ATOM     11  HZ1 LYS A   1      -6.209  -0.677   3.057  0.00  0.00    -0.089 HD
ATOM     12  HZ2 LYS A   1      -7.374   0.282   2.277  0.00  0.00    -0.089 HD
ATOM     13  HZ3 LYS A   1      -5.731   0.704   2.191  0.00  0.00    -0.089 HD
ENDBRANCH   9  10
ENDBRANCH   8   9
ENDBRANCH   1   8
TORSDOF 7
REMARK  Name = ../refined-set-2016/2j77/2j77_pocket.pdb
REMARK  147 active torsions:
REMARK  status: ('A' for Active; 'I' for Inactive)
REMARK    1  A    between atoms: _1  and  _3
REMARK    2  A    between atoms: _3  and  _4
REMARK    3  A    between atoms: _7  and  _9
REMARK    4  A    between atoms: _9  and  _10
REMARK    5  A    between atoms: _9  and  _12
REMARK    6  A    between atoms: _12  and  _13
REMARK    7  A    between atoms: _16  and  _18
REMARK    8  A    between atoms: _18  and  _19
REMARK    9  A    between atoms: _22  and  _24
REMARK   10  A    between atoms: _24  and  _25
REMARK   11  A    between atoms: _24  and  _27
REMARK   12  A    between atoms: _27  and  _28
REMARK   13  A    between atoms: _28  and  _29
REMARK   14  A    between atoms: _34  and  _36
REMARK   15  A    between atoms: _36  and  _37
REMARK   16  A    between atoms: _36  and  _39
REMARK   17  A    between atoms: _39  and  _40
REMARK   18  A    between atoms: _40  and  _41
REMARK   19  A    between atoms: _41  and  _42
REMARK   20  A    between atoms: _51  and  _53
REMARK   21  A    between atoms: _53  and  _54
REMARK   22  A    between atoms: _53  and  _56
REMARK   23  A    between atoms: _56  and  _57
REMARK   24  A    between atoms: _60  and  _62
REMARK   25  A    between atoms: _62  and  _63
REMARK   26  A    between atoms: _62  and  _65
REMARK   27  A    between atoms: _65  and  _66
REMARK   28  A    between atoms: _71  and  _73
REMARK   29  A    between atoms: _73  and  _74
REMARK   30  A    between atoms: _73  and  _76
REMARK   31  A    between atoms: _76  and  _77
REMARK   32  A    between atoms: _87  and  _89
REMARK   33  A    between atoms: _89  and  _90
REMARK   34  A    between atoms: _89  and  _92
REMARK   35  A    between atoms: _92  and  _93
REMARK   36  A    between atoms: _98  and  _100
REMARK   37  A    between atoms: _100  and  _101
REMARK   38  A    between atoms: _100  and  _103
REMARK   39  A    between atoms: _103  and  _104
REMARK   40  A    between atoms: _104  and  _105
REMARK   41  A    between atoms: _108  and  _110
REMARK   42  A    between atoms: _110  and  _111
REMARK   43  A    between atoms: _110  and  _113
REMARK   44  A    between atoms: _116  and  _118
REMARK   45  A    between atoms: _118  and  _119
REMARK   46  A    between atoms: _118  and  _121
REMARK   47  A    between atoms: _121  and  _122
REMARK   48  A    between atoms: _127  and  _129
REMARK   49  A    between atoms: _129  and  _130
REMARK   50  A    between atoms: _129  and  _132
REMARK   51  A    between atoms: _135  and  _137
REMARK   52  A    between atoms: _137  and  _138
REMARK   53  A    between atoms: _137  and  _140
REMARK   54  A    between atoms: _140  and  _141
REMARK   55  A    between atoms: _147  and  _149
REMARK   56  A    between atoms: _149  and  _150
REMARK   57  A    between atoms: _149  and  _152
REMARK   58  A    between atoms: _152  and  _153
REMARK   59  A    between atoms: _158  and  _160
REMARK   60  A    between atoms: _160  and  _161
REMARK   61  A    between atoms: _160  and  _163
REMARK   62  A    between atoms: _163  and  _164
REMARK   63  A    between atoms: _169  and  _171
REMARK   64  A    between atoms: _171  and  _172
REMARK   65  A    between atoms: _171  and  _174
REMARK   66  A    between atoms: _174  and  _175
REMARK   67  A    between atoms: _180  and  _182
REMARK   68  A    between atoms: _182  and  _183
REMARK   69  A    between atoms: _182  and  _185
REMARK   70  A    between atoms: _185  and  _186
REMARK   71  A    between atoms: _191  and  _192
REMARK   72  A    between atoms: _194  and  _196
REMARK   73  A    between atoms: _196  and  _197
REMARK   74  A    between atoms: _196  and  _199
REMARK   75  A    between atoms: _199  and  _200
REMARK   76  A    between atoms: _205  and  _206
REMARK   77  A    between atoms: _208  and  _210
REMARK   78  A    between atoms: _210  and  _211
REMARK   79  A    between atoms: _210  and  _213
REMARK   80  A    between atoms: _213  and  _214
REMARK   81  A    between atoms: _214  and  _215
REMARK   82  A    between atoms: _217  and  _219
REMARK   83  A    between atoms: _219  and  _220
REMARK   84  A    between atoms: _219  and  _222
REMARK   85  A    between atoms: _222  and  _223
REMARK   86  A    between atoms: _233  and  _235
REMARK   87  A    between atoms: _235  and  _236
REMARK   88  A    between atoms: _235  and  _238
REMARK   89  A    between atoms: _238  and  _239
REMARK   90  A    between atoms: _242  and  _244
REMARK   91  A    between atoms: _244  and  _245
REMARK   92  A    between atoms: _244  and  _247
REMARK   93  A    between atoms: _247  and  _248
REMARK   94  A    between atoms: _248  and  _249
REMARK   95  A    between atoms: _252  and  _254
REMARK   96  A    between atoms: _254  and  _255
REMARK   97  A    between atoms: _254  and  _257
REMARK   98  A    between atoms: _257  and  _258
REMARK   99  A    between atoms: _263  and  _265
REMARK  100  A    between atoms: _265  and  _266
REMARK  101  A    between atoms: _268  and  _270
REMARK  102  A    between atoms: _270  and  _271
REMARK  103  A    between atoms: _274  and  _276
REMARK  104  A    between atoms: _276  and  _277
REMARK  105  A    between atoms: _280  and  _282
REMARK  106  A    between atoms: _282  and  _283
REMARK  107  A    between atoms: _282  and  _285
REMARK  108  A    between atoms: _285  and  _286
REMARK  109  A    between atoms: _296  and  _298
REMARK  110  A    between atoms: _298  and  _299
REMARK  111  A    between atoms: _298  and  _301
REMARK  112  A    between atoms: _301  and  _302
REMARK  113  A    between atoms: _304  and  _306
REMARK  114  A    between atoms: _306  and  _307
REMARK  115  A    between atoms: _306  and  _309
REMARK  116  A    between atoms: _309  and  _310
REMARK  117  A    between atoms: _315  and  _317
REMARK  118  A    between atoms: _317  and  _318
REMARK  119  A    between atoms: _317  and  _320
REMARK  120  A    between atoms: _320  and  _321
REMARK  121  A    between atoms: _327  and  _329
REMARK  122  A    between atoms: _329  and  _330
REMARK  123  A    between atoms: _329  and  _332
REMARK  124  A    between atoms: _332  and  _333
REMARK  125  A    between atoms: _333  and  _334
REMARK  126  A    between atoms: _337  and  _339
REMARK  127  A    between atoms: _339  and  _340
REMARK  128  A    between atoms: _339  and  _342
REMARK  129  A    between atoms: _342  and  _343
REMARK  130  A    between atoms: _353  and  _355
REMARK  131  A    between atoms: _355  and  _356
REMARK  132  A    between atoms: _359  and  _361
REMARK  133  A    between atoms: _361  and  _362
REMARK  134  A    between atoms: _361  and  _364
REMARK  135  A    between atoms: _364  and  _365
REMARK  136  A    between atoms: _365  and  _366
REMARK  137  A    between atoms: _369  and  _371
REMARK  138  A    between atoms: _371  and  _372
REMARK  139  A    between atoms: _371  and  _374
REMARK  140  A    between atoms: _374  and  _375
REMARK  141  A    between atoms: _375  and  _376
REMARK  142  A    between atoms: _376  and  _377
REMARK  143  A    between atoms: _377  and  _378
REMARK  144  A    between atoms: _382  and  _384
REMARK  145  A    between atoms: _384  and  _385
REMARK  146  A    between atoms: _384  and  _387
REMARK  147  A    between atoms: _387  and  _388
REMARK                            x       y       z     vdW  Elec       q    Type
REMARK                         _______ _______ _______ _____ _____    ______ ____
ROOT
ATOM      1  CB  PHE A   1      -7.649  10.925   5.080  0.00  0.00    +0.051 C 
ENDROOT
BRANCH   1   2
ATOM      2  CG  PHE A   1      -7.253   9.777   5.941  0.00  0.00    -0.020 A 
ATOM      3  CD2 PHE A   1      -7.686   9.708   7.263  0.00  0.00    -0.004 A 
ATOM      4  CE2 PHE A   1      -7.303   8.678   8.085  0.00  0.00    -0.000 A 
ATOM      5  CZ  PHE A   1      -6.454   7.692   7.609  0.00  0.00    -0.000 A 
ATOM      6  CE1 PHE A   1      -6.006   7.735   6.275  0.00  0.00    -0.000 A 
ATOM      7  CD1 PHE A   1      -6.407   8.778   5.453  0.00  0.00    -0.004 A 
ENDBRANCH   1   2
BRANCH   1   8
ATOM      8  CA  PHE A   1      -8.938  10.710   4.272  0.00  0.00    +0.137 C 
BRANCH   8   9
ATOM      9  N   PHE A   1      -8.646   9.967   3.058  0.00  0.00    -0.239 NA
ATOM     10  H   PHE A   1      -7.839  10.268   2.475  0.00  0.00    +0.142 HD
ENDBRANCH   8   9
BRANCH   8  11
ATOM     11  C   PHE A   1      -9.497  12.099   3.972  0.00  0.00    +0.224 C 
ATOM     12  O   PHE A   1      -9.760  12.844   4.897  0.00  0.00    -0.287 OA
ENDBRANCH   8  11
ENDBRANCH   1   8
TORSDOF 4
REMARK  Name = ../refined-set-2016/2j77/2j77_pocket.pdb
REMARK  147 active torsions:
REMARK  status: ('A' for Active; 'I' for Inactive)
REMARK    1  A    between atoms: _1  and  _3
REMARK    2  A    between atoms: _3  and  _4
REMARK    3  A    between atoms: _7  and  _9
REMARK    4  A    between atoms: _9  and  _10
REMARK    5  A    between atoms: _9  and  _12
REMARK    6  A    between atoms: _12  and  _13
REMARK    7  A    between atoms: _16  and  _18
REMARK    8  A    between atoms: _18  and  _19
REMARK    9  A    between atoms: _22  and  _24
REMARK   10  A    between atoms: _24  and  _25
REMARK   11  A    between atoms: _24  and  _27
REMARK   12  A    between atoms: _27  and  _28
REMARK   13  A    between atoms: _28  and  _29
REMARK   14  A    between atoms: _34  and  _36
REMARK   15  A    between atoms: _36  and  _37
REMARK   16  A    between atoms: _36  and  _39
REMARK   17  A    between atoms: _39  and  _40
REMARK   18  A    between atoms: _40  and  _41
REMARK   19  A    between atoms: _41  and  _42
REMARK   20  A    between atoms: _51  and  _53
REMARK   21  A    between atoms: _53  and  _54
REMARK   22  A    between atoms: _53  and  _56
REMARK   23  A    between atoms: _56  and  _57
REMARK   24  A    between atoms: _60  and  _62
REMARK   25  A    between atoms: _62  and  _63
REMARK   26  A    between atoms: _62  and  _65
REMARK   27  A    between atoms: _65  and  _66
REMARK   28  A    between atoms: _71  and  _73
REMARK   29  A    between atoms: _73  and  _74
REMARK   30  A    between atoms: _73  and  _76
REMARK   31  A    between atoms: _76  and  _77
REMARK   32  A    between atoms: _87  and  _89
REMARK   33  A    between atoms: _89  and  _90
REMARK   34  A    between atoms: _89  and  _92
REMARK   35  A    between atoms: _92  and  _93
REMARK   36  A    between atoms: _98  and  _100
REMARK   37  A    between atoms: _100  and  _101
REMARK   38  A    between atoms: _100  and  _103
REMARK   39  A    between atoms: _103  and  _104
REMARK   40  A    between atoms: _104  and  _105
REMARK   41  A    between atoms: _108  and  _110
REMARK   42  A    between atoms: _110  and  _111
REMARK   43  A    between atoms: _110  and  _113
REMARK   44  A    between atoms: _116  and  _118
REMARK   45  A    between atoms: _118  and  _119
REMARK   46  A    between atoms: _118  and  _121
REMARK   47  A    between atoms: _121  and  _122
REMARK   48  A    between atoms: _127  and  _129
REMARK   49  A    between atoms: _129  and  _130
REMARK   50  A    between atoms: _129  and  _132
REMARK   51  A    between atoms: _135  and  _137
REMARK   52  A    between atoms: _137  and  _138
REMARK   53  A    between atoms: _137  and  _140
REMARK   54  A    between atoms: _140  and  _141
REMARK   55  A    between atoms: _147  and  _149
REMARK   56  A    between atoms: _149  and  _150
REMARK   57  A    between atoms: _149  and  _152
REMARK   58  A    between atoms: _152  and  _153
REMARK   59  A    between atoms: _158  and  _160
REMARK   60  A    between atoms: _160  and  _161
REMARK   61  A    between atoms: _160  and  _163
REMARK   62  A    between atoms: _163  and  _164
REMARK   63  A    between atoms: _169  and  _171
REMARK   64  A    between atoms: _171  and  _172
REMARK   65  A    between atoms: _171  and  _174
REMARK   66  A    between atoms: _174  and  _175
REMARK   67  A    between atoms: _180  and  _182
REMARK   68  A    between atoms: _182  and  _183
REMARK   69  A    between atoms: _182  and  _185
REMARK   70  A    between atoms: _185  and  _186
REMARK   71  A    between atoms: _191  and  _192
REMARK   72  A    between atoms: _194  and  _196
REMARK   73  A    between atoms: _196  and  _197
REMARK   74  A    between atoms: _196  and  _199
REMARK   75  A    between atoms: _199  and  _200
REMARK   76  A    between atoms: _205  and  _206
REMARK   77  A    between atoms: _208  and  _210
REMARK   78  A    between atoms: _210  and  _211
REMARK   79  A    between atoms: _210  and  _213
REMARK   80  A    between atoms: _213  and  _214
REMARK   81  A    between atoms: _214  and  _215
REMARK   82  A    between atoms: _217  and  _219
REMARK   83  A    between atoms: _219  and  _220
REMARK   84  A    between atoms: _219  and  _222
REMARK   85  A    between atoms: _222  and  _223
REMARK   86  A    between atoms: _233  and  _235
REMARK   87  A    between atoms: _235  and  _236
REMARK   88  A    between atoms: _235  and  _238
REMARK   89  A    between atoms: _238  and  _239
REMARK   90  A    between atoms: _242  and  _244
REMARK   91  A    between atoms: _244  and  _245
REMARK   92  A    between atoms: _244  and  _247
REMARK   93  A    between atoms: _247  and  _248
REMARK   94  A    between atoms: _248  and  _249
REMARK   95  A    between atoms: _252  and  _254
REMARK   96  A    between atoms: _254  and  _255
REMARK   97  A    between atoms: _254  and  _257
REMARK   98  A    between atoms: _257  and  _258
REMARK   99  A    between atoms: _263  and  _265
REMARK  100  A    between atoms: _265  and  _266
REMARK  101  A    between atoms: _268  and  _270
REMARK  102  A    between atoms: _270  and  _271
REMARK  103  A    between atoms: _274  and  _276
REMARK  104  A    between atoms: _276  and  _277
REMARK  105  A    between atoms: _280  and  _282
REMARK  106  A    between atoms: _282  and  _283
REMARK  107  A    between atoms: _282  and  _285
REMARK  108  A    between atoms: _285  and  _286
REMARK  109  A    between atoms: _296  and  _298
REMARK  110  A    between atoms: _298  and  _299
REMARK  111  A    between atoms: _298  and  _301
REMARK  112  A    between atoms: _301  and  _302
REMARK  113  A    between atoms: _304  and  _306
REMARK  114  A    between atoms: _306  and  _307
REMARK  115  A    between atoms: _306  and  _309
REMARK  116  A    between atoms: _309  and  _310
REMARK  117  A    between atoms: _315  and  _317
REMARK  118  A    between atoms: _317  and  _318
REMARK  119  A    between atoms: _317  and  _320
REMARK  120  A    between atoms: _320  and  _321
REMARK  121  A    between atoms: _327  and  _329
REMARK  122  A    between atoms: _329  and  _330
REMARK  123  A    between atoms: _329  and  _332
REMARK  124  A    between atoms: _332  and  _333
REMARK  125  A    between atoms: _333  and  _334
REMARK  126  A    between atoms: _337  and  _339
REMARK  127  A    between atoms: _339  and  _340
REMARK  128  A    between atoms: _339  and  _342
REMARK  129  A    between atoms: _342  and  _343
REMARK  130  A    between atoms: _353  and  _355
REMARK  131  A    between atoms: _355  and  _356
REMARK  132  A    between atoms: _359  and  _361
REMARK  133  A    between atoms: _361  and  _362
REMARK  134  A    between atoms: _361  and  _364
REMARK  135  A    between atoms: _364  and  _365
REMARK  136  A    between atoms: _365  and  _366
REMARK  137  A    between atoms: _369  and  _371
REMARK  138  A    between atoms: _371  and  _372
REMARK  139  A    between atoms: _371  and  _374
REMARK  140  A    between atoms: _374  and  _375
REMARK  141  A    between atoms: _375  and  _376
REMARK  142  A    between atoms: _376  and  _377
REMARK  143  A    between atoms: _377  and  _378
REMARK  144  A    between atoms: _382  and  _384
REMARK  145  A    between atoms: _384  and  _385
REMARK  146  A    between atoms: _384  and  _387
REMARK  147  A    between atoms: _387  and  _388
REMARK                            x       y       z     vdW  Elec       q    Type
REMARK                         _______ _______ _______ _____ _____    ______ ____
ROOT
ATOM      1  O   HOH     1       1.642  18.870   8.149  0.00  0.00    +0.000 OA
ENDROOT
TORSDOF 0
REMARK  Name = ../refined-set-2016/2j77/2j77_pocket.pdb
REMARK  147 active torsions:
REMARK  status: ('A' for Active; 'I' for Inactive)
REMARK    1  A    between atoms: _1  and  _3
REMARK    2  A    between atoms: _3  and  _4
REMARK    3  A    between atoms: _7  and  _9
REMARK    4  A    between atoms: _9  and  _10
REMARK    5  A    between atoms: _9  and  _12
REMARK    6  A    between atoms: _12  and  _13
REMARK    7  A    between atoms: _16  and  _18
REMARK    8  A    between atoms: _18  and  _19
REMARK    9  A    between atoms: _22  and  _24
REMARK   10  A    between atoms: _24  and  _25
REMARK   11  A    between atoms: _24  and  _27
REMARK   12  A    between atoms: _27  and  _28
REMARK   13  A    between atoms: _28  and  _29
REMARK   14  A    between atoms: _34  and  _36
REMARK   15  A    between atoms: _36  and  _37
REMARK   16  A    between atoms: _36  and  _39
REMARK   17  A    between atoms: _39  and  _40
REMARK   18  A    between atoms: _40  and  _41
REMARK   19  A    between atoms: _41  and  _42
REMARK   20  A    between atoms: _51  and  _53
REMARK   21  A    between atoms: _53  and  _54
REMARK   22  A    between atoms: _53  and  _56
REMARK   23  A    between atoms: _56  and  _57
REMARK   24  A    between atoms: _60  and  _62
REMARK   25  A    between atoms: _62  and  _63
REMARK   26  A    between atoms: _62  and  _65
REMARK   27  A    between atoms: _65  and  _66
REMARK   28  A    between atoms: _71  and  _73
REMARK   29  A    between atoms: _73  and  _74
REMARK   30  A    between atoms: _73  and  _76
REMARK   31  A    between atoms: _76  and  _77
REMARK   32  A    between atoms: _87  and  _89
REMARK   33  A    between atoms: _89  and  _90
REMARK   34  A    between atoms: _89  and  _92
REMARK   35  A    between atoms: _92  and  _93
REMARK   36  A    between atoms: _98  and  _100
REMARK   37  A    between atoms: _100  and  _101
REMARK   38  A    between atoms: _100  and  _103
REMARK   39  A    between atoms: _103  and  _104
REMARK   40  A    between atoms: _104  and  _105
REMARK   41  A    between atoms: _108  and  _110
REMARK   42  A    between atoms: _110  and  _111
REMARK   43  A    between atoms: _110  and  _113
REMARK   44  A    between atoms: _116  and  _118
REMARK   45  A    between atoms: _118  and  _119
REMARK   46  A    between atoms: _118  and  _121
REMARK   47  A    between atoms: _121  and  _122
REMARK   48  A    between atoms: _127  and  _129
REMARK   49  A    between atoms: _129  and  _130
REMARK   50  A    between atoms: _129  and  _132
REMARK   51  A    between atoms: _135  and  _137
REMARK   52  A    between atoms: _137  and  _138
REMARK   53  A    between atoms: _137  and  _140
REMARK   54  A    between atoms: _140  and  _141
REMARK   55  A    between atoms: _147  and  _149
REMARK   56  A    between atoms: _149  and  _150
REMARK   57  A    between atoms: _149  and  _152
REMARK   58  A    between atoms: _152  and  _153
REMARK   59  A    between atoms: _158  and  _160
REMARK   60  A    between atoms: _160  and  _161
REMARK   61  A    between atoms: _160  and  _163
REMARK   62  A    between atoms: _163  and  _164
REMARK   63  A    between atoms: _169  and  _171
REMARK   64  A    between atoms: _171  and  _172
REMARK   65  A    between atoms: _171  and  _174
REMARK   66  A    between atoms: _174  and  _175
REMARK   67  A    between atoms: _180  and  _182
REMARK   68  A    between atoms: _182  and  _183
REMARK   69  A    between atoms: _182  and  _185
REMARK   70  A    between atoms: _185  and  _186
REMARK   71  A    between atoms: _191  and  _192
REMARK   72  A    between atoms: _194  and  _196
REMARK   73  A    between atoms: _196  and  _197
REMARK   74  A    between atoms: _196  and  _199
REMARK   75  A    between atoms: _199  and  _200
REMARK   76  A    between atoms: _205  and  _206
REMARK   77  A    between atoms: _208  and  _210
REMARK   78  A    between atoms: _210  and  _211
REMARK   79  A    between atoms: _210  and  _213
REMARK   80  A    between atoms: _213  and  _214
REMARK   81  A    between atoms: _214  and  _215
REMARK   82  A    between atoms: _217  and  _219
REMARK   83  A    between atoms: _219  and  _220
REMARK   84  A    between atoms: _219  and  _222
REMARK   85  A    between atoms: _222  and  _223
REMARK   86  A    between atoms: _233  and  _235
REMARK   87  A    between atoms: _235  and  _236
REMARK   88  A    between atoms: _235  and  _238
REMARK   89  A    between atoms: _238  and  _239
REMARK   90  A    between atoms: _242  and  _244
REMARK   91  A    between atoms: _244  and  _245
REMARK   92  A    between atoms: _244  and  _247
REMARK   93  A    between atoms: _247  and  _248
REMARK   94  A    between atoms: _248  and  _249
REMARK   95  A    between atoms: _252  and  _254
REMARK   96  A    between atoms: _254  and  _255
REMARK   97  A    between atoms: _254  and  _257
REMARK   98  A    between atoms: _257  and  _258
REMARK   99  A    between atoms: _263  and  _265
REMARK  100  A    between atoms: _265  and  _266
REMARK  101  A    between atoms: _268  and  _270
REMARK  102  A    between atoms: _270  and  _271
REMARK  103  A    between atoms: _274  and  _276
REMARK  104  A    between atoms: _276  and  _277
REMARK  105  A    between atoms: _280  and  _282
REMARK  106  A    between atoms: _282  and  _283
REMARK  107  A    between atoms: _282  and  _285
REMARK  108  A    between atoms: _285  and  _286
REMARK  109  A    between atoms: _296  and  _298
REMARK  110  A    between atoms: _298  and  _299
REMARK  111  A    between atoms: _298  and  _301
REMARK  112  A    between atoms: _301  and  _302
REMARK  113  A    between atoms: _304  and  _306
REMARK  114  A    between atoms: _306  and  _307
REMARK  115  A    between atoms: _306  and  _309
REMARK  116  A    between atoms: _309  and  _310
REMARK  117  A    between atoms: _315  and  _317
REMARK  118  A    between atoms: _317  and  _318
REMARK  119  A    between atoms: _317  and  _320
REMARK  120  A    between atoms: _320  and  _321
REMARK  121  A    between atoms: _327  and  _329
REMARK  122  A    between atoms: _329  and  _330
REMARK  123  A    between atoms: _329  and  _332
REMARK  124  A    between atoms: _332  and  _333
REMARK  125  A    between atoms: _333  and  _334
REMARK  126  A    between atoms: _337  and  _339
REMARK  127  A    between atoms: _339  and  _340
REMARK  128  A    between atoms: _339  and  _342
REMARK  129  A    between atoms: _342  and  _343
REMARK  130  A    between atoms: _353  and  _355
REMARK  131  A    between atoms: _355  and  _356
REMARK  132  A    between atoms: _359  and  _361
REMARK  133  A    between atoms: _361  and  _362
REMARK  134  A    between atoms: _361  and  _364
REMARK  135  A    between atoms: _364  and  _365
REMARK  136  A    between atoms: _365  and  _366
REMARK  137  A    between atoms: _369  and  _371
REMARK  138  A    between atoms: _371  and  _372
REMARK  139  A    between atoms: _371  and  _374
REMARK  140  A    between atoms: _374  and  _375
REMARK  141  A    between atoms: _375  and  _376
REMARK  142  A    between atoms: _376  and  _377
REMARK  143  A    between atoms: _377  and  _378
REMARK  144  A    between atoms: _382  and  _384
REMARK  145  A    between atoms: _384  and  _385
REMARK  146  A    between atoms: _384  and  _387
REMARK  147  A    between atoms: _387  and  _388
REMARK                            x       y       z     vdW  Elec       q    Type
REMARK                         _______ _______ _______ _____ _____    ______ ____
ROOT
ATOM      1  O   HOH     1       5.570  15.039   3.810  0.00  0.00    +0.000 OA
ENDROOT
TORSDOF 0
REMARK  Name = ../refined-set-2016/2j77/2j77_pocket.pdb
REMARK  147 active torsions:
REMARK  status: ('A' for Active; 'I' for Inactive)
REMARK    1  A    between atoms: _1  and  _3
REMARK    2  A    between atoms: _3  and  _4
REMARK    3  A    between atoms: _7  and  _9
REMARK    4  A    between atoms: _9  and  _10
REMARK    5  A    between atoms: _9  and  _12
REMARK    6  A    between atoms: _12  and  _13
REMARK    7  A    between atoms: _16  and  _18
REMARK    8  A    between atoms: _18  and  _19
REMARK    9  A    between atoms: _22  and  _24
REMARK   10  A    between atoms: _24  and  _25
REMARK   11  A    between atoms: _24  and  _27
REMARK   12  A    between atoms: _27  and  _28
REMARK   13  A    between atoms: _28  and  _29
REMARK   14  A    between atoms: _34  and  _36
REMARK   15  A    between atoms: _36  and  _37
REMARK   16  A    between atoms: _36  and  _39
REMARK   17  A    between atoms: _39  and  _40
REMARK   18  A    between atoms: _40  and  _41
REMARK   19  A    between atoms: _41  and  _42
REMARK   20  A    between atoms: _51  and  _53
REMARK   21  A    between atoms: _53  and  _54
REMARK   22  A    between atoms: _53  and  _56
REMARK   23  A    between atoms: _56  and  _57
REMARK   24  A    between atoms: _60  and  _62
REMARK   25  A    between atoms: _62  and  _63
REMARK   26  A    between atoms: _62  and  _65
REMARK   27  A    between atoms: _65  and  _66
REMARK   28  A    between atoms: _71  and  _73
REMARK   29  A    between atoms: _73  and  _74
REMARK   30  A    between atoms: _73  and  _76
REMARK   31  A    between atoms: _76  and  _77
REMARK   32  A    between atoms: _87  and  _89
REMARK   33  A    between atoms: _89  and  _90
REMARK   34  A    between atoms: _89  and  _92
REMARK   35  A    between atoms: _92  and  _93
REMARK   36  A    between atoms: _98  and  _100
REMARK   37  A    between atoms: _100  and  _101
REMARK   38  A    between atoms: _100  and  _103
REMARK   39  A    between atoms: _103  and  _104
REMARK   40  A    between atoms: _104  and  _105
REMARK   41  A    between atoms: _108  and  _110
REMARK   42  A    between atoms: _110  and  _111
REMARK   43  A    between atoms: _110  and  _113
REMARK   44  A    between atoms: _116  and  _118
REMARK   45  A    between atoms: _118  and  _119
REMARK   46  A    between atoms: _118  and  _121
REMARK   47  A    between atoms: _121  and  _122
REMARK   48  A    between atoms: _127  and  _129
REMARK   49  A    between atoms: _129  and  _130
REMARK   50  A    between atoms: _129  and  _132
REMARK   51  A    between atoms: _135  and  _137
REMARK   52  A    between atoms: _137  and  _138
REMARK   53  A    between atoms: _137  and  _140
REMARK   54  A    between atoms: _140  and  _141
REMARK   55  A    between atoms: _147  and  _149
REMARK   56  A    between atoms: _149  and  _150
REMARK   57  A    between atoms: _149  and  _152
REMARK   58  A    between atoms: _152  and  _153
REMARK   59  A    between atoms: _158  and  _160
REMARK   60  A    between atoms: _160  and  _161
REMARK   61  A    between atoms: _160  and  _163
REMARK   62  A    between atoms: _163  and  _164
REMARK   63  A    between atoms: _169  and  _171
REMARK   64  A    between atoms: _171  and  _172
REMARK   65  A    between atoms: _171  and  _174
REMARK   66  A    between atoms: _174  and  _175
REMARK   67  A    between atoms: _180  and  _182
REMARK   68  A    between atoms: _182  and  _183
REMARK   69  A    between atoms: _182  and  _185
REMARK   70  A    between atoms: _185  and  _186
REMARK   71  A    between atoms: _191  and  _192
REMARK   72  A    between atoms: _194  and  _196
REMARK   73  A    between atoms: _196  and  _197
REMARK   74  A    between atoms: _196  and  _199
REMARK   75  A    between atoms: _199  and  _200
REMARK   76  A    between atoms: _205  and  _206
REMARK   77  A    between atoms: _208  and  _210
REMARK   78  A    between atoms: _210  and  _211
REMARK   79  A    between atoms: _210  and  _213
REMARK   80  A    between atoms: _213  and  _214
REMARK   81  A    between atoms: _214  and  _215
REMARK   82  A    between atoms: _217  and  _219
REMARK   83  A    between atoms: _219  and  _220
REMARK   84  A    between atoms: _219  and  _222
REMARK   85  A    between atoms: _222  and  _223
REMARK   86  A    between atoms: _233  and  _235
REMARK   87  A    between atoms: _235  and  _236
REMARK   88  A    between atoms: _235  and  _238
REMARK   89  A    between atoms: _238  and  _239
REMARK   90  A    between atoms: _242  and  _244
REMARK   91  A    between atoms: _244  and  _245
REMARK   92  A    between atoms: _244  and  _247
REMARK   93  A    between atoms: _247  and  _248
REMARK   94  A    between atoms: _248  and  _249
REMARK   95  A    between atoms: _252  and  _254
REMARK   96  A    between atoms: _254  and  _255
REMARK   97  A    between atoms: _254  and  _257
REMARK   98  A    between atoms: _257  and  _258
REMARK   99  A    between atoms: _263  and  _265
REMARK  100  A    between atoms: _265  and  _266
REMARK  101  A    between atoms: _268  and  _270
REMARK  102  A    between atoms: _270  and  _271
REMARK  103  A    between atoms: _274  and  _276
REMARK  104  A    between atoms: _276  and  _277
REMARK  105  A    between atoms: _280  and  _282
REMARK  106  A    between atoms: _282  and  _283
REMARK  107  A    between atoms: _282  and  _285
REMARK  108  A    between atoms: _285  and  _286
REMARK  109  A    between atoms: _296  and  _298
REMARK  110  A    between atoms: _298  and  _299
REMARK  111  A    between atoms: _298  and  _301
REMARK  112  A    between atoms: _301  and  _302
REMARK  113  A    between atoms: _304  and  _306
REMARK  114  A    between atoms: _306  and  _307
REMARK  115  A    between atoms: _306  and  _309
REMARK  116  A    between atoms: _309  and  _310
REMARK  117  A    between atoms: _315  and  _317
REMARK  118  A    between atoms: _317  and  _318
REMARK  119  A    between atoms: _317  and  _320
REMARK  120  A    between atoms: _320  and  _321
REMARK  121  A    between atoms: _327  and  _329
REMARK  122  A    between atoms: _329  and  _330
REMARK  123  A    between atoms: _329  and  _332
REMARK  124  A    between atoms: _332  and  _333
REMARK  125  A    between atoms: _333  and  _334
REMARK  126  A    between atoms: _337  and  _339
REMARK  127  A    between atoms: _339  and  _340
REMARK  128  A    between atoms: _339  and  _342
REMARK  129  A    between atoms: _342  and  _343
REMARK  130  A    between atoms: _353  and  _355
REMARK  131  A    between atoms: _355  and  _356
REMARK  132  A    between atoms: _359  and  _361
REMARK  133  A    between atoms: _361  and  _362
REMARK  134  A    between atoms: _361  and  _364
REMARK  135  A    between atoms: _364  and  _365
REMARK  136  A    between atoms: _365  and  _366
REMARK  137  A    between atoms: _369  and  _371
REMARK  138  A    between atoms: _371  and  _372
REMARK  139  A    between atoms: _371  and  _374
REMARK  140  A    between atoms: _374  and  _375
REMARK  141  A    between atoms: _375  and  _376
REMARK  142  A    between atoms: _376  and  _377
REMARK  143  A    between atoms: _377  and  _378
REMARK  144  A    between atoms: _382  and  _384
REMARK  145  A    between atoms: _384  and  _385
REMARK  146  A    between atoms: _384  and  _387
REMARK  147  A    between atoms: _387  and  _388
REMARK                            x       y       z     vdW  Elec       q    Type
REMARK                         _______ _______ _______ _____ _____    ______ ____
ROOT
ATOM      1  O   HOH     1       1.012   6.223  10.083  0.00  0.00    +0.000 OA
ENDROOT
TORSDOF 0
REMARK  Name = ../refined-set-2016/2j77/2j77_pocket.pdb
REMARK  147 active torsions:
REMARK  status: ('A' for Active; 'I' for Inactive)
REMARK    1  A    between atoms: _1  and  _3
REMARK    2  A    between atoms: _3  and  _4
REMARK    3  A    between atoms: _7  and  _9
REMARK    4  A    between atoms: _9  and  _10
REMARK    5  A    between atoms: _9  and  _12
REMARK    6  A    between atoms: _12  and  _13
REMARK    7  A    between atoms: _16  and  _18
REMARK    8  A    between atoms: _18  and  _19
REMARK    9  A    between atoms: _22  and  _24
REMARK   10  A    between atoms: _24  and  _25
REMARK   11  A    between atoms: _24  and  _27
REMARK   12  A    between atoms: _27  and  _28
REMARK   13  A    between atoms: _28  and  _29
REMARK   14  A    between atoms: _34  and  _36
REMARK   15  A    between atoms: _36  and  _37
REMARK   16  A    between atoms: _36  and  _39
REMARK   17  A    between atoms: _39  and  _40
REMARK   18  A    between atoms: _40  and  _41
REMARK   19  A    between atoms: _41  and  _42
REMARK   20  A    between atoms: _51  and  _53
REMARK   21  A    between atoms: _53  and  _54
REMARK   22  A    between atoms: _53  and  _56
REMARK   23  A    between atoms: _56  and  _57
REMARK   24  A    between atoms: _60  and  _62
REMARK   25  A    between atoms: _62  and  _63
REMARK   26  A    between atoms: _62  and  _65
REMARK   27  A    between atoms: _65  and  _66
REMARK   28  A    between atoms: _71  and  _73
REMARK   29  A    between atoms: _73  and  _74
REMARK   30  A    between atoms: _73  and  _76
REMARK   31  A    between atoms: _76  and  _77
REMARK   32  A    between atoms: _87  and  _89
REMARK   33  A    between atoms: _89  and  _90
REMARK   34  A    between atoms: _89  and  _92
REMARK   35  A    between atoms: _92  and  _93
REMARK   36  A    between atoms: _98  and  _100
REMARK   37  A    between atoms: _100  and  _101
REMARK   38  A    between atoms: _100  and  _103
REMARK   39  A    between atoms: _103  and  _104
REMARK   40  A    between atoms: _104  and  _105
REMARK   41  A    between atoms: _108  and  _110
REMARK   42  A    between atoms: _110  and  _111
REMARK   43  A    between atoms: _110  and  _113
REMARK   44  A    between atoms: _116  and  _118
REMARK   45  A    between atoms: _118  and  _119
REMARK   46  A    between atoms: _118  and  _121
REMARK   47  A    between atoms: _121  and  _122
REMARK   48  A    between atoms: _127  and  _129
REMARK   49  A    between atoms: _129  and  _130
REMARK   50  A    between atoms: _129  and  _132
REMARK   51  A    between atoms: _135  and  _137
REMARK   52  A    between atoms: _137  and  _138
REMARK   53  A    between atoms: _137  and  _140
REMARK   54  A    between atoms: _140  and  _141
REMARK   55  A    between atoms: _147  and  _149
REMARK   56  A    between atoms: _149  and  _150
REMARK   57  A    between atoms: _149  and  _152
REMARK   58  A    between atoms: _152  and  _153
REMARK   59  A    between atoms: _158  and  _160
REMARK   60  A    between atoms: _160  and  _161
REMARK   61  A    between atoms: _160  and  _163
REMARK   62  A    between atoms: _163  and  _164
REMARK   63  A    between atoms: _169  and  _171
REMARK   64  A    between atoms: _171  and  _172
REMARK   65  A    between atoms: _171  and  _174
REMARK   66  A    between atoms: _174  and  _175
REMARK   67  A    between atoms: _180  and  _182
REMARK   68  A    between atoms: _182  and  _183
REMARK   69  A    between atoms: _182  and  _185
REMARK   70  A    between atoms: _185  and  _186
REMARK   71  A    between atoms: _191  and  _192
REMARK   72  A    between atoms: _194  and  _196
REMARK   73  A    between atoms: _196  and  _197
REMARK   74  A    between atoms: _196  and  _199
REMARK   75  A    between atoms: _199  and  _200
REMARK   76  A    between atoms: _205  and  _206
REMARK   77  A    between atoms: _208  and  _210
REMARK   78  A    between atoms: _210  and  _211
REMARK   79  A    between atoms: _210  and  _213
REMARK   80  A    between atoms: _213  and  _214
REMARK   81  A    between atoms: _214  and  _215
REMARK   82  A    between atoms: _217  and  _219
REMARK   83  A    between atoms: _219  and  _220
REMARK   84  A    between atoms: _219  and  _222
REMARK   85  A    between atoms: _222  and  _223
REMARK   86  A    between atoms: _233  and  _235
REMARK   87  A    between atoms: _235  and  _236
REMARK   88  A    between atoms: _235  and  _238
REMARK   89  A    between atoms: _238  and  _239
REMARK   90  A    between atoms: _242  and  _244
REMARK   91  A    between atoms: _244  and  _245
REMARK   92  A    between atoms: _244  and  _247
REMARK   93  A    between atoms: _247  and  _248
REMARK   94  A    between atoms: _248  and  _249
REMARK   95  A    between atoms: _252  and  _254
REMARK   96  A    between atoms: _254  and  _255
REMARK   97  A    between atoms: _254  and  _257
REMARK   98  A    between atoms: _257  and  _258
REMARK   99  A    between atoms: _263  and  _265
REMARK  100  A    between atoms: _265  and  _266
REMARK  101  A    between atoms: _268  and  _270
REMARK  102  A    between atoms: _270  and  _271
REMARK  103  A    between atoms: _274  and  _276
REMARK  104  A    between atoms: _276  and  _277
REMARK  105  A    between atoms: _280  and  _282
REMARK  106  A    between atoms: _282  and  _283
REMARK  107  A    between atoms: _282  and  _285
REMARK  108  A    between atoms: _285  and  _286
REMARK  109  A    between atoms: _296  and  _298
REMARK  110  A    between atoms: _298  and  _299
REMARK  111  A    between atoms: _298  and  _301
REMARK  112  A    between atoms: _301  and  _302
REMARK  113  A    between atoms: _304  and  _306
REMARK  114  A    between atoms: _306  and  _307
REMARK  115  A    between atoms: _306  and  _309
REMARK  116  A    between atoms: _309  and  _310
REMARK  117  A    between atoms: _315  and  _317
REMARK  118  A    between atoms: _317  and  _318
REMARK  119  A    between atoms: _317  and  _320
REMARK  120  A    between atoms: _320  and  _321
REMARK  121  A    between atoms: _327  and  _329
REMARK  122  A    between atoms: _329  and  _330
REMARK  123  A    between atoms: _329  and  _332
REMARK  124  A    between atoms: _332  and  _333
REMARK  125  A    between atoms: _333  and  _334
REMARK  126  A    between atoms: _337  and  _339
REMARK  127  A    between atoms: _339  and  _340
REMARK  128  A    between atoms: _339  and  _342
REMARK  129  A    between atoms: _342  and  _343
REMARK  130  A    between atoms: _353  and  _355
REMARK  131  A    between atoms: _355  and  _356
REMARK  132  A    between atoms: _359  and  _361
REMARK  133  A    between atoms: _361  and  _362
REMARK  134  A    between atoms: _361  and  _364
REMARK  135  A    between atoms: _364  and  _365
REMARK  136  A    between atoms: _365  and  _366
REMARK  137  A    between atoms: _369  and  _371
REMARK  138  A    between atoms: _371  and  _372
REMARK  139  A    between atoms: _371  and  _374
REMARK  140  A    between atoms: _374  and  _375
REMARK  141  A    between atoms: _375  and  _376
REMARK  142  A    between atoms: _376  and  _377
REMARK  143  A    between atoms: _377  and  _378
REMARK  144  A    between atoms: _382  and  _384
REMARK  145  A    between atoms: _384  and  _385
REMARK  146  A    between atoms: _384  and  _387
REMARK  147  A    between atoms: _387  and  _388
REMARK                            x       y       z     vdW  Elec       q    Type
REMARK                         _______ _______ _______ _____ _____    ______ ____
ROOT
ATOM      1  O   HOH     1       1.066   4.280  14.176  0.00  0.00    +0.000 OA
ENDROOT
TORSDOF 0
REMARK  Name = ../refined-set-2016/2j77/2j77_pocket.pdb
REMARK  147 active torsions:
REMARK  status: ('A' for Active; 'I' for Inactive)
REMARK    1  A    between atoms: _1  and  _3
REMARK    2  A    between atoms: _3  and  _4
REMARK    3  A    between atoms: _7  and  _9
REMARK    4  A    between atoms: _9  and  _10
REMARK    5  A    between atoms: _9  and  _12
REMARK    6  A    between atoms: _12  and  _13
REMARK    7  A    between atoms: _16  and  _18
REMARK    8  A    between atoms: _18  and  _19
REMARK    9  A    between atoms: _22  and  _24
REMARK   10  A    between atoms: _24  and  _25
REMARK   11  A    between atoms: _24  and  _27
REMARK   12  A    between atoms: _27  and  _28
REMARK   13  A    between atoms: _28  and  _29
REMARK   14  A    between atoms: _34  and  _36
REMARK   15  A    between atoms: _36  and  _37
REMARK   16  A    between atoms: _36  and  _39
REMARK   17  A    between atoms: _39  and  _40
REMARK   18  A    between atoms: _40  and  _41
REMARK   19  A    between atoms: _41  and  _42
REMARK   20  A    between atoms: _51  and  _53
REMARK   21  A    between atoms: _53  and  _54
REMARK   22  A    between atoms: _53  and  _56
REMARK   23  A    between atoms: _56  and  _57
REMARK   24  A    between atoms: _60  and  _62
REMARK   25  A    between atoms: _62  and  _63
REMARK   26  A    between atoms: _62  and  _65
REMARK   27  A    between atoms: _65  and  _66
REMARK   28  A    between atoms: _71  and  _73
REMARK   29  A    between atoms: _73  and  _74
REMARK   30  A    between atoms: _73  and  _76
REMARK   31  A    between atoms: _76  and  _77
REMARK   32  A    between atoms: _87  and  _89
REMARK   33  A    between atoms: _89  and  _90
REMARK   34  A    between atoms: _89  and  _92
REMARK   35  A    between atoms: _92  and  _93
REMARK   36  A    between atoms: _98  and  _100
REMARK   37  A    between atoms: _100  and  _101
REMARK   38  A    between atoms: _100  and  _103
REMARK   39  A    between atoms: _103  and  _104
REMARK   40  A    between atoms: _104  and  _105
REMARK   41  A    between atoms: _108  and  _110
REMARK   42  A    between atoms: _110  and  _111
REMARK   43  A    between atoms: _110  and  _113
REMARK   44  A    between atoms: _116  and  _118
REMARK   45  A    between atoms: _118  and  _119
REMARK   46  A    between atoms: _118  and  _121
REMARK   47  A    between atoms: _121  and  _122
REMARK   48  A    between atoms: _127  and  _129
REMARK   49  A    between atoms: _129  and  _130
REMARK   50  A    between atoms: _129  and  _132
REMARK   51  A    between atoms: _135  and  _137
REMARK   52  A    between atoms: _137  and  _138
REMARK   53  A    between atoms: _137  and  _140
REMARK   54  A    between atoms: _140  and  _141
REMARK   55  A    between atoms: _147  and  _149
REMARK   56  A    between atoms: _149  and  _150
REMARK   57  A    between atoms: _149  and  _152
REMARK   58  A    between atoms: _152  and  _153
REMARK   59  A    between atoms: _158  and  _160
REMARK   60  A    between atoms: _160  and  _161
REMARK   61  A    between atoms: _160  and  _163
REMARK   62  A    between atoms: _163  and  _164
REMARK   63  A    between atoms: _169  and  _171
REMARK   64  A    between atoms: _171  and  _172
REMARK   65  A    between atoms: _171  and  _174
REMARK   66  A    between atoms: _174  and  _175
REMARK   67  A    between atoms: _180  and  _182
REMARK   68  A    between atoms: _182  and  _183
REMARK   69  A    between atoms: _182  and  _185
REMARK   70  A    between atoms: _185  and  _186
REMARK   71  A    between atoms: _191  and  _192
REMARK   72  A    between atoms: _194  and  _196
REMARK   73  A    between atoms: _196  and  _197
REMARK   74  A    between atoms: _196  and  _199
REMARK   75  A    between atoms: _199  and  _200
REMARK   76  A    between atoms: _205  and  _206
REMARK   77  A    between atoms: _208  and  _210
REMARK   78  A    between atoms: _210  and  _211
REMARK   79  A    between atoms: _210  and  _213
REMARK   80  A    between atoms: _213  and  _214
REMARK   81  A    between atoms: _214  and  _215
REMARK   82  A    between atoms: _217  and  _219
REMARK   83  A    between atoms: _219  and  _220
REMARK   84  A    between atoms: _219  and  _222
REMARK   85  A    between atoms: _222  and  _223
REMARK   86  A    between atoms: _233  and  _235
REMARK   87  A    between atoms: _235  and  _236
REMARK   88  A    between atoms: _235  and  _238
REMARK   89  A    between atoms: _238  and  _239
REMARK   90  A    between atoms: _242  and  _244
REMARK   91  A    between atoms: _244  and  _245
REMARK   92  A    between atoms: _244  and  _247
REMARK   93  A    between atoms: _247  and  _248
REMARK   94  A    between atoms: _248  and  _249
REMARK   95  A    between atoms: _252  and  _254
REMARK   96  A    between atoms: _254  and  _255
REMARK   97  A    between atoms: _254  and  _257
REMARK   98  A    between atoms: _257  and  _258
REMARK   99  A    between atoms: _263  and  _265
REMARK  100  A    between atoms: _265  and  _266
REMARK  101  A    between atoms: _268  and  _270
REMARK  102  A    between atoms: _270  and  _271
REMARK  103  A    between atoms: _274  and  _276
REMARK  104  A    between atoms: _276  and  _277
REMARK  105  A    between atoms: _280  and  _282
REMARK  106  A    between atoms: _282  and  _283
REMARK  107  A    between atoms: _282  and  _285
REMARK  108  A    between atoms: _285  and  _286
REMARK  109  A    between atoms: _296  and  _298
REMARK  110  A    between atoms: _298  and  _299
REMARK  111  A    between atoms: _298  and  _301
REMARK  112  A    between atoms: _301  and  _302
REMARK  113  A    between atoms: _304  and  _306
REMARK  114  A    between atoms: _306  and  _307
REMARK  115  A    between atoms: _306  and  _309
REMARK  116  A    between atoms: _309  and  _310
REMARK  117  A    between atoms: _315  and  _317
REMARK  118  A    between atoms: _317  and  _318
REMARK  119  A    between atoms: _317  and  _320
REMARK  120  A    between atoms: _320  and  _321
REMARK  121  A    between atoms: _327  and  _329
REMARK  122  A    between atoms: _329  and  _330
REMARK  123  A    between atoms: _329  and  _332
REMARK  124  A    between atoms: _332  and  _333
REMARK  125  A    between atoms: _333  and  _334
REMARK  126  A    between atoms: _337  and  _339
REMARK  127  A    between atoms: _339  and  _340
REMARK  128  A    between atoms: _339  and  _342
REMARK  129  A    between atoms: _342  and  _343
REMARK  130  A    between atoms: _353  and  _355
REMARK  131  A    between atoms: _355  and  _356
REMARK  132  A    between atoms: _359  and  _361
REMARK  133  A    between atoms: _361  and  _362
REMARK  134  A    between atoms: _361  and  _364
REMARK  135  A    between atoms: _364  and  _365
REMARK  136  A    between atoms: _365  and  _366
REMARK  137  A    between atoms: _369  and  _371
REMARK  138  A    between atoms: _371  and  _372
REMARK  139  A    between atoms: _371  and  _374
REMARK  140  A    between atoms: _374  and  _375
REMARK  141  A    between atoms: _375  and  _376
REMARK  142  A    between atoms: _376  and  _377
REMARK  143  A    between atoms: _377  and  _378
REMARK  144  A    between atoms: _382  and  _384
REMARK  145  A    between atoms: _384  and  _385
REMARK  146  A    between atoms: _384  and  _387
REMARK  147  A    between atoms: _387  and  _388
REMARK                            x       y       z     vdW  Elec       q    Type
REMARK                         _______ _______ _______ _____ _____    ______ ____
ROOT
ATOM      1  O   HOH     1       0.307   8.218  12.015  0.00  0.00    +0.000 OA
ENDROOT
TORSDOF 0
REMARK  Name = ../refined-set-2016/2j77/2j77_pocket.pdb
REMARK  147 active torsions:
REMARK  status: ('A' for Active; 'I' for Inactive)
REMARK    1  A    between atoms: _1  and  _3
REMARK    2  A    between atoms: _3  and  _4
REMARK    3  A    between atoms: _7  and  _9
REMARK    4  A    between atoms: _9  and  _10
REMARK    5  A    between atoms: _9  and  _12
REMARK    6  A    between atoms: _12  and  _13
REMARK    7  A    between atoms: _16  and  _18
REMARK    8  A    between atoms: _18  and  _19
REMARK    9  A    between atoms: _22  and  _24
REMARK   10  A    between atoms: _24  and  _25
REMARK   11  A    between atoms: _24  and  _27
REMARK   12  A    between atoms: _27  and  _28
REMARK   13  A    between atoms: _28  and  _29
REMARK   14  A    between atoms: _34  and  _36
REMARK   15  A    between atoms: _36  and  _37
REMARK   16  A    between atoms: _36  and  _39
REMARK   17  A    between atoms: _39  and  _40
REMARK   18  A    between atoms: _40  and  _41
REMARK   19  A    between atoms: _41  and  _42
REMARK   20  A    between atoms: _51  and  _53
REMARK   21  A    between atoms: _53  and  _54
REMARK   22  A    between atoms: _53  and  _56
REMARK   23  A    between atoms: _56  and  _57
REMARK   24  A    between atoms: _60  and  _62
REMARK   25  A    between atoms: _62  and  _63
REMARK   26  A    between atoms: _62  and  _65
REMARK   27  A    between atoms: _65  and  _66
REMARK   28  A    between atoms: _71  and  _73
REMARK   29  A    between atoms: _73  and  _74
REMARK   30  A    between atoms: _73  and  _76
REMARK   31  A    between atoms: _76  and  _77
REMARK   32  A    between atoms: _87  and  _89
REMARK   33  A    between atoms: _89  and  _90
REMARK   34  A    between atoms: _89  and  _92
REMARK   35  A    between atoms: _92  and  _93
REMARK   36  A    between atoms: _98  and  _100
REMARK   37  A    between atoms: _100  and  _101
REMARK   38  A    between atoms: _100  and  _103
REMARK   39  A    between atoms: _103  and  _104
REMARK   40  A    between atoms: _104  and  _105
REMARK   41  A    between atoms: _108  and  _110
REMARK   42  A    between atoms: _110  and  _111
REMARK   43  A    between atoms: _110  and  _113
REMARK   44  A    between atoms: _116  and  _118
REMARK   45  A    between atoms: _118  and  _119
REMARK   46  A    between atoms: _118  and  _121
REMARK   47  A    between atoms: _121  and  _122
REMARK   48  A    between atoms: _127  and  _129
REMARK   49  A    between atoms: _129  and  _130
REMARK   50  A    between atoms: _129  and  _132
REMARK   51  A    between atoms: _135  and  _137
REMARK   52  A    between atoms: _137  and  _138
REMARK   53  A    between atoms: _137  and  _140
REMARK   54  A    between atoms: _140  and  _141
REMARK   55  A    between atoms: _147  and  _149
REMARK   56  A    between atoms: _149  and  _150
REMARK   57  A    between atoms: _149  and  _152
REMARK   58  A    between atoms: _152  and  _153
REMARK   59  A    between atoms: _158  and  _160
REMARK   60  A    between atoms: _160  and  _161
REMARK   61  A    between atoms: _160  and  _163
REMARK   62  A    between atoms: _163  and  _164
REMARK   63  A    between atoms: _169  and  _171
REMARK   64  A    between atoms: _171  and  _172
REMARK   65  A    between atoms: _171  and  _174
REMARK   66  A    between atoms: _174  and  _175
REMARK   67  A    between atoms: _180  and  _182
REMARK   68  A    between atoms: _182  and  _183
REMARK   69  A    between atoms: _182  and  _185
REMARK   70  A    between atoms: _185  and  _186
REMARK   71  A    between atoms: _191  and  _192
REMARK   72  A    between atoms: _194  and  _196
REMARK   73  A    between atoms: _196  and  _197
REMARK   74  A    between atoms: _196  and  _199
REMARK   75  A    between atoms: _199  and  _200
REMARK   76  A    between atoms: _205  and  _206
REMARK   77  A    between atoms: _208  and  _210
REMARK   78  A    between atoms: _210  and  _211
REMARK   79  A    between atoms: _210  and  _213
REMARK   80  A    between atoms: _213  and  _214
REMARK   81  A    between atoms: _214  and  _215
REMARK   82  A    between atoms: _217  and  _219
REMARK   83  A    between atoms: _219  and  _220
REMARK   84  A    between atoms: _219  and  _222
REMARK   85  A    between atoms: _222  and  _223
REMARK   86  A    between atoms: _233  and  _235
REMARK   87  A    between atoms: _235  and  _236
REMARK   88  A    between atoms: _235  and  _238
REMARK   89  A    between atoms: _238  and  _239
REMARK   90  A    between atoms: _242  and  _244
REMARK   91  A    between atoms: _244  and  _245
REMARK   92  A    between atoms: _244  and  _247
REMARK   93  A    between atoms: _247  and  _248
REMARK   94  A    between atoms: _248  and  _249
REMARK   95  A    between atoms: _252  and  _254
REMARK   96  A    between atoms: _254  and  _255
REMARK   97  A    between atoms: _254  and  _257
REMARK   98  A    between atoms: _257  and  _258
REMARK   99  A    between atoms: _263  and  _265
REMARK  100  A    between atoms: _265  and  _266
REMARK  101  A    between atoms: _268  and  _270
REMARK  102  A    between atoms: _270  and  _271
REMARK  103  A    between atoms: _274  and  _276
REMARK  104  A    between atoms: _276  and  _277
REMARK  105  A    between atoms: _280  and  _282
REMARK  106  A    between atoms: _282  and  _283
REMARK  107  A    between atoms: _282  and  _285
REMARK  108  A    between atoms: _285  and  _286
REMARK  109  A    between atoms: _296  and  _298
REMARK  110  A    between atoms: _298  and  _299
REMARK  111  A    between atoms: _298  and  _301
REMARK  112  A    between atoms: _301  and  _302
REMARK  113  A    between atoms: _304  and  _306
REMARK  114  A    between atoms: _306  and  _307
REMARK  115  A    between atoms: _306  and  _309
REMARK  116  A    between atoms: _309  and  _310
REMARK  117  A    between atoms: _315  and  _317
REMARK  118  A    between atoms: _317  and  _318
REMARK  119  A    between atoms: _317  and  _320
REMARK  120  A    between atoms: _320  and  _321
REMARK  121  A    between atoms: _327  and  _329
REMARK  122  A    between atoms: _329  and  _330
REMARK  123  A    between atoms: _329  and  _332
REMARK  124  A    between atoms: _332  and  _333
REMARK  125  A    between atoms: _333  and  _334
REMARK  126  A    between atoms: _337  and  _339
REMARK  127  A    between atoms: _339  and  _340
REMARK  128  A    between atoms: _339  and  _342
REMARK  129  A    between atoms: _342  and  _343
REMARK  130  A    between atoms: _353  and  _355
REMARK  131  A    between atoms: _355  and  _356
REMARK  132  A    between atoms: _359  and  _361
REMARK  133  A    between atoms: _361  and  _362
REMARK  134  A    between atoms: _361  and  _364
REMARK  135  A    between atoms: _364  and  _365
REMARK  136  A    between atoms: _365  and  _366
REMARK  137  A    between atoms: _369  and  _371
REMARK  138  A    between atoms: _371  and  _372
REMARK  139  A    between atoms: _371  and  _374
REMARK  140  A    between atoms: _374  and  _375
REMARK  141  A    between atoms: _375  and  _376
REMARK  142  A    between atoms: _376  and  _377
REMARK  143  A    between atoms: _377  and  _378
REMARK  144  A    between atoms: _382  and  _384
REMARK  145  A    between atoms: _384  and  _385
REMARK  146  A    between atoms: _384  and  _387
REMARK  147  A    between atoms: _387  and  _388
REMARK                            x       y       z     vdW  Elec       q    Type
REMARK                         _______ _______ _______ _____ _____    ______ ____
ROOT
ATOM      1  O   HOH     1      -1.702   9.473  14.028  0.00  0.00    +0.000 OA
ENDROOT
TORSDOF 0
REMARK  Name = ../refined-set-2016/2j77/2j77_pocket.pdb
REMARK  147 active torsions:
REMARK  status: ('A' for Active; 'I' for Inactive)
REMARK    1  A    between atoms: _1  and  _3
REMARK    2  A    between atoms: _3  and  _4
REMARK    3  A    between atoms: _7  and  _9
REMARK    4  A    between atoms: _9  and  _10
REMARK    5  A    between atoms: _9  and  _12
REMARK    6  A    between atoms: _12  and  _13
REMARK    7  A    between atoms: _16  and  _18
REMARK    8  A    between atoms: _18  and  _19
REMARK    9  A    between atoms: _22  and  _24
REMARK   10  A    between atoms: _24  and  _25
REMARK   11  A    between atoms: _24  and  _27
REMARK   12  A    between atoms: _27  and  _28
REMARK   13  A    between atoms: _28  and  _29
REMARK   14  A    between atoms: _34  and  _36
REMARK   15  A    between atoms: _36  and  _37
REMARK   16  A    between atoms: _36  and  _39
REMARK   17  A    between atoms: _39  and  _40
REMARK   18  A    between atoms: _40  and  _41
REMARK   19  A    between atoms: _41  and  _42
REMARK   20  A    between atoms: _51  and  _53
REMARK   21  A    between atoms: _53  and  _54
REMARK   22  A    between atoms: _53  and  _56
REMARK   23  A    between atoms: _56  and  _57
REMARK   24  A    between atoms: _60  and  _62
REMARK   25  A    between atoms: _62  and  _63
REMARK   26  A    between atoms: _62  and  _65
REMARK   27  A    between atoms: _65  and  _66
REMARK   28  A    between atoms: _71  and  _73
REMARK   29  A    between atoms: _73  and  _74
REMARK   30  A    between atoms: _73  and  _76
REMARK   31  A    between atoms: _76  and  _77
REMARK   32  A    between atoms: _87  and  _89
REMARK   33  A    between atoms: _89  and  _90
REMARK   34  A    between atoms: _89  and  _92
REMARK   35  A    between atoms: _92  and  _93
REMARK   36  A    between atoms: _98  and  _100
REMARK   37  A    between atoms: _100  and  _101
REMARK   38  A    between atoms: _100  and  _103
REMARK   39  A    between atoms: _103  and  _104
REMARK   40  A    between atoms: _104  and  _105
REMARK   41  A    between atoms: _108  and  _110
REMARK   42  A    between atoms: _110  and  _111
REMARK   43  A    between atoms: _110  and  _113
REMARK   44  A    between atoms: _116  and  _118
REMARK   45  A    between atoms: _118  and  _119
REMARK   46  A    between atoms: _118  and  _121
REMARK   47  A    between atoms: _121  and  _122
REMARK   48  A    between atoms: _127  and  _129
REMARK   49  A    between atoms: _129  and  _130
REMARK   50  A    between atoms: _129  and  _132
REMARK   51  A    between atoms: _135  and  _137
REMARK   52  A    between atoms: _137  and  _138
REMARK   53  A    between atoms: _137  and  _140
REMARK   54  A    between atoms: _140  and  _141
REMARK   55  A    between atoms: _147  and  _149
REMARK   56  A    between atoms: _149  and  _150
REMARK   57  A    between atoms: _149  and  _152
REMARK   58  A    between atoms: _152  and  _153
REMARK   59  A    between atoms: _158  and  _160
REMARK   60  A    between atoms: _160  and  _161
REMARK   61  A    between atoms: _160  and  _163
REMARK   62  A    between atoms: _163  and  _164
REMARK   63  A    between atoms: _169  and  _171
REMARK   64  A    between atoms: _171  and  _172
REMARK   65  A    between atoms: _171  and  _174
REMARK   66  A    between atoms: _174  and  _175
REMARK   67  A    between atoms: _180  and  _182
REMARK   68  A    between atoms: _182  and  _183
REMARK   69  A    between atoms: _182  and  _185
REMARK   70  A    between atoms: _185  and  _186
REMARK   71  A    between atoms: _191  and  _192
REMARK   72  A    between atoms: _194  and  _196
REMARK   73  A    between atoms: _196  and  _197
REMARK   74  A    between atoms: _196  and  _199
REMARK   75  A    between atoms: _199  and  _200
REMARK   76  A    between atoms: _205  and  _206
REMARK   77  A    between atoms: _208  and  _210
REMARK   78  A    between atoms: _210  and  _211
REMARK   79  A    between atoms: _210  and  _213
REMARK   80  A    between atoms: _213  and  _214
REMARK   81  A    between atoms: _214  and  _215
REMARK   82  A    between atoms: _217  and  _219
REMARK   83  A    between atoms: _219  and  _220
REMARK   84  A    between atoms: _219  and  _222
REMARK   85  A    between atoms: _222  and  _223
REMARK   86  A    between atoms: _233  and  _235
REMARK   87  A    between atoms: _235  and  _236
REMARK   88  A    between atoms: _235  and  _238
REMARK   89  A    between atoms: _238  and  _239
REMARK   90  A    between atoms: _242  and  _244
REMARK   91  A    between atoms: _244  and  _245
REMARK   92  A    between atoms: _244  and  _247
REMARK   93  A    between atoms: _247  and  _248
REMARK   94  A    between atoms: _248  and  _249
REMARK   95  A    between atoms: _252  and  _254
REMARK   96  A    between atoms: _254  and  _255
REMARK   97  A    between atoms: _254  and  _257
REMARK   98  A    between atoms: _257  and  _258
REMARK   99  A    between atoms: _263  and  _265
REMARK  100  A    between atoms: _265  and  _266
REMARK  101  A    between atoms: _268  and  _270
REMARK  102  A    between atoms: _270  and  _271
REMARK  103  A    between atoms: _274  and  _276
REMARK  104  A    between atoms: _276  and  _277
REMARK  105  A    between atoms: _280  and  _282
REMARK  106  A    between atoms: _282  and  _283
REMARK  107  A    between atoms: _282  and  _285
REMARK  108  A    between atoms: _285  and  _286
REMARK  109  A    between atoms: _296  and  _298
REMARK  110  A    between atoms: _298  and  _299
REMARK  111  A    between atoms: _298  and  _301
REMARK  112  A    between atoms: _301  and  _302
REMARK  113  A    between atoms: _304  and  _306
REMARK  114  A    between atoms: _306  and  _307
REMARK  115  A    between atoms: _306  and  _309
REMARK  116  A    between atoms: _309  and  _310
REMARK  117  A    between atoms: _315  and  _317
REMARK  118  A    between atoms: _317  and  _318
REMARK  119  A    between atoms: _317  and  _320
REMARK  120  A    between atoms: _320  and  _321
REMARK  121  A    between atoms: _327  and  _329
REMARK  122  A    between atoms: _329  and  _330
REMARK  123  A    between atoms: _329  and  _332
REMARK  124  A    between atoms: _332  and  _333
REMARK  125  A    between atoms: _333  and  _334
REMARK  126  A    between atoms: _337  and  _339
REMARK  127  A    between atoms: _339  and  _340
REMARK  128  A    between atoms: _339  and  _342
REMARK  129  A    between atoms: _342  and  _343
REMARK  130  A    between atoms: _353  and  _355
REMARK  131  A    between atoms: _355  and  _356
REMARK  132  A    between atoms: _359  and  _361
REMARK  133  A    between atoms: _361  and  _362
REMARK  134  A    between atoms: _361  and  _364
REMARK  135  A    between atoms: _364  and  _365
REMARK  136  A    between atoms: _365  and  _366
REMARK  137  A    between atoms: _369  and  _371
REMARK  138  A    between atoms: _371  and  _372
REMARK  139  A    between atoms: _371  and  _374
REMARK  140  A    between atoms: _374  and  _375
REMARK  141  A    between atoms: _375  and  _376
REMARK  142  A    between atoms: _376  and  _377
REMARK  143  A    between atoms: _377  and  _378
REMARK  144  A    between atoms: _382  and  _384
REMARK  145  A    between atoms: _384  and  _385
REMARK  146  A    between atoms: _384  and  _387
REMARK  147  A    between atoms: _387  and  _388
REMARK                            x       y       z     vdW  Elec       q    Type
REMARK                         _______ _______ _______ _____ _____    ______ ____
ROOT
ATOM      1  O   HOH     1       1.617   3.725   6.462  0.00  0.00    +0.000 OA
ENDROOT
TORSDOF 0
REMARK  Name = ../refined-set-2016/2j77/2j77_pocket.pdb
REMARK  147 active torsions:
REMARK  status: ('A' for Active; 'I' for Inactive)
REMARK    1  A    between atoms: _1  and  _3
REMARK    2  A    between atoms: _3  and  _4
REMARK    3  A    between atoms: _7  and  _9
REMARK    4  A    between atoms: _9  and  _10
REMARK    5  A    between atoms: _9  and  _12
REMARK    6  A    between atoms: _12  and  _13
REMARK    7  A    between atoms: _16  and  _18
REMARK    8  A    between atoms: _18  and  _19
REMARK    9  A    between atoms: _22  and  _24
REMARK   10  A    between atoms: _24  and  _25
REMARK   11  A    between atoms: _24  and  _27
REMARK   12  A    between atoms: _27  and  _28
REMARK   13  A    between atoms: _28  and  _29
REMARK   14  A    between atoms: _34  and  _36
REMARK   15  A    between atoms: _36  and  _37
REMARK   16  A    between atoms: _36  and  _39
REMARK   17  A    between atoms: _39  and  _40
REMARK   18  A    between atoms: _40  and  _41
REMARK   19  A    between atoms: _41  and  _42
REMARK   20  A    between atoms: _51  and  _53
REMARK   21  A    between atoms: _53  and  _54
REMARK   22  A    between atoms: _53  and  _56
REMARK   23  A    between atoms: _56  and  _57
REMARK   24  A    between atoms: _60  and  _62
REMARK   25  A    between atoms: _62  and  _63
REMARK   26  A    between atoms: _62  and  _65
REMARK   27  A    between atoms: _65  and  _66
REMARK   28  A    between atoms: _71  and  _73
REMARK   29  A    between atoms: _73  and  _74
REMARK   30  A    between atoms: _73  and  _76
REMARK   31  A    between atoms: _76  and  _77
REMARK   32  A    between atoms: _87  and  _89
REMARK   33  A    between atoms: _89  and  _90
REMARK   34  A    between atoms: _89  and  _92
REMARK   35  A    between atoms: _92  and  _93
REMARK   36  A    between atoms: _98  and  _100
REMARK   37  A    between atoms: _100  and  _101
REMARK   38  A    between atoms: _100  and  _103
REMARK   39  A    between atoms: _103  and  _104
REMARK   40  A    between atoms: _104  and  _105
REMARK   41  A    between atoms: _108  and  _110
REMARK   42  A    between atoms: _110  and  _111
REMARK   43  A    between atoms: _110  and  _113
REMARK   44  A    between atoms: _116  and  _118
REMARK   45  A    between atoms: _118  and  _119
REMARK   46  A    between atoms: _118  and  _121
REMARK   47  A    between atoms: _121  and  _122
REMARK   48  A    between atoms: _127  and  _129
REMARK   49  A    between atoms: _129  and  _130
REMARK   50  A    between atoms: _129  and  _132
REMARK   51  A    between atoms: _135  and  _137
REMARK   52  A    between atoms: _137  and  _138
REMARK   53  A    between atoms: _137  and  _140
REMARK   54  A    between atoms: _140  and  _141
REMARK   55  A    between atoms: _147  and  _149
REMARK   56  A    between atoms: _149  and  _150
REMARK   57  A    between atoms: _149  and  _152
REMARK   58  A    between atoms: _152  and  _153
REMARK   59  A    between atoms: _158  and  _160
REMARK   60  A    between atoms: _160  and  _161
REMARK   61  A    between atoms: _160  and  _163
REMARK   62  A    between atoms: _163  and  _164
REMARK   63  A    between atoms: _169  and  _171
REMARK   64  A    between atoms: _171  and  _172
REMARK   65  A    between atoms: _171  and  _174
REMARK   66  A    between atoms: _174  and  _175
REMARK   67  A    between atoms: _180  and  _182
REMARK   68  A    between atoms: _182  and  _183
REMARK   69  A    between atoms: _182  and  _185
REMARK   70  A    between atoms: _185  and  _186
REMARK   71  A    between atoms: _191  and  _192
REMARK   72  A    between atoms: _194  and  _196
REMARK   73  A    between atoms: _196  and  _197
REMARK   74  A    between atoms: _196  and  _199
REMARK   75  A    between atoms: _199  and  _200
REMARK   76  A    between atoms: _205  and  _206
REMARK   77  A    between atoms: _208  and  _210
REMARK   78  A    between atoms: _210  and  _211
REMARK   79  A    between atoms: _210  and  _213
REMARK   80  A    between atoms: _213  and  _214
REMARK   81  A    between atoms: _214  and  _215
REMARK   82  A    between atoms: _217  and  _219
REMARK   83  A    between atoms: _219  and  _220
REMARK   84  A    between atoms: _219  and  _222
REMARK   85  A    between atoms: _222  and  _223
REMARK   86  A    between atoms: _233  and  _235
REMARK   87  A    between atoms: _235  and  _236
REMARK   88  A    between atoms: _235  and  _238
REMARK   89  A    between atoms: _238  and  _239
REMARK   90  A    between atoms: _242  and  _244
REMARK   91  A    between atoms: _244  and  _245
REMARK   92  A    between atoms: _244  and  _247
REMARK   93  A    between atoms: _247  and  _248
REMARK   94  A    between atoms: _248  and  _249
REMARK   95  A    between atoms: _252  and  _254
REMARK   96  A    between atoms: _254  and  _255
REMARK   97  A    between atoms: _254  and  _257
REMARK   98  A    between atoms: _257  and  _258
REMARK   99  A    between atoms: _263  and  _265
REMARK  100  A    between atoms: _265  and  _266
REMARK  101  A    between atoms: _268  and  _270
REMARK  102  A    between atoms: _270  and  _271
REMARK  103  A    between atoms: _274  and  _276
REMARK  104  A    between atoms: _276  and  _277
REMARK  105  A    between atoms: _280  and  _282
REMARK  106  A    between atoms: _282  and  _283
REMARK  107  A    between atoms: _282  and  _285
REMARK  108  A    between atoms: _285  and  _286
REMARK  109  A    between atoms: _296  and  _298
REMARK  110  A    between atoms: _298  and  _299
REMARK  111  A    between atoms: _298  and  _301
REMARK  112  A    between atoms: _301  and  _302
REMARK  113  A    between atoms: _304  and  _306
REMARK  114  A    between atoms: _306  and  _307
REMARK  115  A    between atoms: _306  and  _309
REMARK  116  A    between atoms: _309  and  _310
REMARK  117  A    between atoms: _315  and  _317
REMARK  118  A    between atoms: _317  and  _318
REMARK  119  A    between atoms: _317  and  _320
REMARK  120  A    between atoms: _320  and  _321
REMARK  121  A    between atoms: _327  and  _329
REMARK  122  A    between atoms: _329  and  _330
REMARK  123  A    between atoms: _329  and  _332
REMARK  124  A    between atoms: _332  and  _333
REMARK  125  A    between atoms: _333  and  _334
REMARK  126  A    between atoms: _337  and  _339
REMARK  127  A    between atoms: _339  and  _340
REMARK  128  A    between atoms: _339  and  _342
REMARK  129  A    between atoms: _342  and  _343
REMARK  130  A    between atoms: _353  and  _355
REMARK  131  A    between atoms: _355  and  _356
REMARK  132  A    between atoms: _359  and  _361
REMARK  133  A    between atoms: _361  and  _362
REMARK  134  A    between atoms: _361  and  _364
REMARK  135  A    between atoms: _364  and  _365
REMARK  136  A    between atoms: _365  and  _366
REMARK  137  A    between atoms: _369  and  _371
REMARK  138  A    between atoms: _371  and  _372
REMARK  139  A    between atoms: _371  and  _374
REMARK  140  A    between atoms: _374  and  _375
REMARK  141  A    between atoms: _375  and  _376
REMARK  142  A    between atoms: _376  and  _377
REMARK  143  A    between atoms: _377  and  _378
REMARK  144  A    between atoms: _382  and  _384
REMARK  145  A    between atoms: _384  and  _385
REMARK  146  A    between atoms: _384  and  _387
REMARK  147  A    between atoms: _387  and  _388
REMARK                            x       y       z     vdW  Elec       q    Type
REMARK                         _______ _______ _______ _____ _____    ______ ____
ROOT
ATOM      1  O   HOH     1      -5.144   7.672  17.338  0.00  0.00    +0.000 OA
ENDROOT
TORSDOF 0
REMARK  Name = ../refined-set-2016/2j77/2j77_pocket.pdb
REMARK  147 active torsions:
REMARK  status: ('A' for Active; 'I' for Inactive)
REMARK    1  A    between atoms: _1  and  _3
REMARK    2  A    between atoms: _3  and  _4
REMARK    3  A    between atoms: _7  and  _9
REMARK    4  A    between atoms: _9  and  _10
REMARK    5  A    between atoms: _9  and  _12
REMARK    6  A    between atoms: _12  and  _13
REMARK    7  A    between atoms: _16  and  _18
REMARK    8  A    between atoms: _18  and  _19
REMARK    9  A    between atoms: _22  and  _24
REMARK   10  A    between atoms: _24  and  _25
REMARK   11  A    between atoms: _24  and  _27
REMARK   12  A    between atoms: _27  and  _28
REMARK   13  A    between atoms: _28  and  _29
REMARK   14  A    between atoms: _34  and  _36
REMARK   15  A    between atoms: _36  and  _37
REMARK   16  A    between atoms: _36  and  _39
REMARK   17  A    between atoms: _39  and  _40
REMARK   18  A    between atoms: _40  and  _41
REMARK   19  A    between atoms: _41  and  _42
REMARK   20  A    between atoms: _51  and  _53
REMARK   21  A    between atoms: _53  and  _54
REMARK   22  A    between atoms: _53  and  _56
REMARK   23  A    between atoms: _56  and  _57
REMARK   24  A    between atoms: _60  and  _62
REMARK   25  A    between atoms: _62  and  _63
REMARK   26  A    between atoms: _62  and  _65
REMARK   27  A    between atoms: _65  and  _66
REMARK   28  A    between atoms: _71  and  _73
REMARK   29  A    between atoms: _73  and  _74
REMARK   30  A    between atoms: _73  and  _76
REMARK   31  A    between atoms: _76  and  _77
REMARK   32  A    between atoms: _87  and  _89
REMARK   33  A    between atoms: _89  and  _90
REMARK   34  A    between atoms: _89  and  _92
REMARK   35  A    between atoms: _92  and  _93
REMARK   36  A    between atoms: _98  and  _100
REMARK   37  A    between atoms: _100  and  _101
REMARK   38  A    between atoms: _100  and  _103
REMARK   39  A    between atoms: _103  and  _104
REMARK   40  A    between atoms: _104  and  _105
REMARK   41  A    between atoms: _108  and  _110
REMARK   42  A    between atoms: _110  and  _111
REMARK   43  A    between atoms: _110  and  _113
REMARK   44  A    between atoms: _116  and  _118
REMARK   45  A    between atoms: _118  and  _119
REMARK   46  A    between atoms: _118  and  _121
REMARK   47  A    between atoms: _121  and  _122
REMARK   48  A    between atoms: _127  and  _129
REMARK   49  A    between atoms: _129  and  _130
REMARK   50  A    between atoms: _129  and  _132
REMARK   51  A    between atoms: _135  and  _137
REMARK   52  A    between atoms: _137  and  _138
REMARK   53  A    between atoms: _137  and  _140
REMARK   54  A    between atoms: _140  and  _141
REMARK   55  A    between atoms: _147  and  _149
REMARK   56  A    between atoms: _149  and  _150
REMARK   57  A    between atoms: _149  and  _152
REMARK   58  A    between atoms: _152  and  _153
REMARK   59  A    between atoms: _158  and  _160
REMARK   60  A    between atoms: _160  and  _161
REMARK   61  A    between atoms: _160  and  _163
REMARK   62  A    between atoms: _163  and  _164
REMARK   63  A    between atoms: _169  and  _171
REMARK   64  A    between atoms: _171  and  _172
REMARK   65  A    between atoms: _171  and  _174
REMARK   66  A    between atoms: _174  and  _175
REMARK   67  A    between atoms: _180  and  _182
REMARK   68  A    between atoms: _182  and  _183
REMARK   69  A    between atoms: _182  and  _185
REMARK   70  A    between atoms: _185  and  _186
REMARK   71  A    between atoms: _191  and  _192
REMARK   72  A    between atoms: _194  and  _196
REMARK   73  A    between atoms: _196  and  _197
REMARK   74  A    between atoms: _196  and  _199
REMARK   75  A    between atoms: _199  and  _200
REMARK   76  A    between atoms: _205  and  _206
REMARK   77  A    between atoms: _208  and  _210
REMARK   78  A    between atoms: _210  and  _211
REMARK   79  A    between atoms: _210  and  _213
REMARK   80  A    between atoms: _213  and  _214
REMARK   81  A    between atoms: _214  and  _215
REMARK   82  A    between atoms: _217  and  _219
REMARK   83  A    between atoms: _219  and  _220
REMARK   84  A    between atoms: _219  and  _222
REMARK   85  A    between atoms: _222  and  _223
REMARK   86  A    between atoms: _233  and  _235
REMARK   87  A    between atoms: _235  and  _236
REMARK   88  A    between atoms: _235  and  _238
REMARK   89  A    between atoms: _238  and  _239
REMARK   90  A    between atoms: _242  and  _244
REMARK   91  A    between atoms: _244  and  _245
REMARK   92  A    between atoms: _244  and  _247
REMARK   93  A    between atoms: _247  and  _248
REMARK   94  A    between atoms: _248  and  _249
REMARK   95  A    between atoms: _252  and  _254
REMARK   96  A    between atoms: _254  and  _255
REMARK   97  A    between atoms: _254  and  _257
REMARK   98  A    between atoms: _257  and  _258
REMARK   99  A    between atoms: _263  and  _265
REMARK  100  A    between atoms: _265  and  _266
REMARK  101  A    between atoms: _268  and  _270
REMARK  102  A    between atoms: _270  and  _271
REMARK  103  A    between atoms: _274  and  _276
REMARK  104  A    between atoms: _276  and  _277
REMARK  105  A    between atoms: _280  and  _282
REMARK  106  A    between atoms: _282  and  _283
REMARK  107  A    between atoms: _282  and  _285
REMARK  108  A    between atoms: _285  and  _286
REMARK  109  A    between atoms: _296  and  _298
REMARK  110  A    between atoms: _298  and  _299
REMARK  111  A    between atoms: _298  and  _301
REMARK  112  A    between atoms: _301  and  _302
REMARK  113  A    between atoms: _304  and  _306
REMARK  114  A    between atoms: _306  and  _307
REMARK  115  A    between atoms: _306  and  _309
REMARK  116  A    between atoms: _309  and  _310
REMARK  117  A    between atoms: _315  and  _317
REMARK  118  A    between atoms: _317  and  _318
REMARK  119  A    between atoms: _317  and  _320
REMARK  120  A    between atoms: _320  and  _321
REMARK  121  A    between atoms: _327  and  _329
REMARK  122  A    between atoms: _329  and  _330
REMARK  123  A    between atoms: _329  and  _332
REMARK  124  A    between atoms: _332  and  _333
REMARK  125  A    between atoms: _333  and  _334
REMARK  126  A    between atoms: _337  and  _339
REMARK  127  A    between atoms: _339  and  _340
REMARK  128  A    between atoms: _339  and  _342
REMARK  129  A    between atoms: _342  and  _343
REMARK  130  A    between atoms: _353  and  _355
REMARK  131  A    between atoms: _355  and  _356
REMARK  132  A    between atoms: _359  and  _361
REMARK  133  A    between atoms: _361  and  _362
REMARK  134  A    between atoms: _361  and  _364
REMARK  135  A    between atoms: _364  and  _365
REMARK  136  A    between atoms: _365  and  _366
REMARK  137  A    between atoms: _369  and  _371
REMARK  138  A    between atoms: _371  and  _372
REMARK  139  A    between atoms: _371  and  _374
REMARK  140  A    between atoms: _374  and  _375
REMARK  141  A    between atoms: _375  and  _376
REMARK  142  A    between atoms: _376  and  _377
REMARK  143  A    between atoms: _377  and  _378
REMARK  144  A    between atoms: _382  and  _384
REMARK  145  A    between atoms: _384  and  _385
REMARK  146  A    between atoms: _384  and  _387
REMARK  147  A    between atoms: _387  and  _388
REMARK                            x       y       z     vdW  Elec       q    Type
REMARK                         _______ _______ _______ _____ _____    ______ ____
ROOT
ATOM      1  O   HOH     1      -2.694   9.538  16.469  0.00  0.00    +0.000 OA
ENDROOT
TORSDOF 0
REMARK  Name = ../refined-set-2016/2j77/2j77_pocket.pdb
REMARK  147 active torsions:
REMARK  status: ('A' for Active; 'I' for Inactive)
REMARK    1  A    between atoms: _1  and  _3
REMARK    2  A    between atoms: _3  and  _4
REMARK    3  A    between atoms: _7  and  _9
REMARK    4  A    between atoms: _9  and  _10
REMARK    5  A    between atoms: _9  and  _12
REMARK    6  A    between atoms: _12  and  _13
REMARK    7  A    between atoms: _16  and  _18
REMARK    8  A    between atoms: _18  and  _19
REMARK    9  A    between atoms: _22  and  _24
REMARK   10  A    between atoms: _24  and  _25
REMARK   11  A    between atoms: _24  and  _27
REMARK   12  A    between atoms: _27  and  _28
REMARK   13  A    between atoms: _28  and  _29
REMARK   14  A    between atoms: _34  and  _36
REMARK   15  A    between atoms: _36  and  _37
REMARK   16  A    between atoms: _36  and  _39
REMARK   17  A    between atoms: _39  and  _40
REMARK   18  A    between atoms: _40  and  _41
REMARK   19  A    between atoms: _41  and  _42
REMARK   20  A    between atoms: _51  and  _53
REMARK   21  A    between atoms: _53  and  _54
REMARK   22  A    between atoms: _53  and  _56
REMARK   23  A    between atoms: _56  and  _57
REMARK   24  A    between atoms: _60  and  _62
REMARK   25  A    between atoms: _62  and  _63
REMARK   26  A    between atoms: _62  and  _65
REMARK   27  A    between atoms: _65  and  _66
REMARK   28  A    between atoms: _71  and  _73
REMARK   29  A    between atoms: _73  and  _74
REMARK   30  A    between atoms: _73  and  _76
REMARK   31  A    between atoms: _76  and  _77
REMARK   32  A    between atoms: _87  and  _89
REMARK   33  A    between atoms: _89  and  _90
REMARK   34  A    between atoms: _89  and  _92
REMARK   35  A    between atoms: _92  and  _93
REMARK   36  A    between atoms: _98  and  _100
REMARK   37  A    between atoms: _100  and  _101
REMARK   38  A    between atoms: _100  and  _103
REMARK   39  A    between atoms: _103  and  _104
REMARK   40  A    between atoms: _104  and  _105
REMARK   41  A    between atoms: _108  and  _110
REMARK   42  A    between atoms: _110  and  _111
REMARK   43  A    between atoms: _110  and  _113
REMARK   44  A    between atoms: _116  and  _118
REMARK   45  A    between atoms: _118  and  _119
REMARK   46  A    between atoms: _118  and  _121
REMARK   47  A    between atoms: _121  and  _122
REMARK   48  A    between atoms: _127  and  _129
REMARK   49  A    between atoms: _129  and  _130
REMARK   50  A    between atoms: _129  and  _132
REMARK   51  A    between atoms: _135  and  _137
REMARK   52  A    between atoms: _137  and  _138
REMARK   53  A    between atoms: _137  and  _140
REMARK   54  A    between atoms: _140  and  _141
REMARK   55  A    between atoms: _147  and  _149
REMARK   56  A    between atoms: _149  and  _150
REMARK   57  A    between atoms: _149  and  _152
REMARK   58  A    between atoms: _152  and  _153
REMARK   59  A    between atoms: _158  and  _160
REMARK   60  A    between atoms: _160  and  _161
REMARK   61  A    between atoms: _160  and  _163
REMARK   62  A    between atoms: _163  and  _164
REMARK   63  A    between atoms: _169  and  _171
REMARK   64  A    between atoms: _171  and  _172
REMARK   65  A    between atoms: _171  and  _174
REMARK   66  A    between atoms: _174  and  _175
REMARK   67  A    between atoms: _180  and  _182
REMARK   68  A    between atoms: _182  and  _183
REMARK   69  A    between atoms: _182  and  _185
REMARK   70  A    between atoms: _185  and  _186
REMARK   71  A    between atoms: _191  and  _192
REMARK   72  A    between atoms: _194  and  _196
REMARK   73  A    between atoms: _196  and  _197
REMARK   74  A    between atoms: _196  and  _199
REMARK   75  A    between atoms: _199  and  _200
REMARK   76  A    between atoms: _205  and  _206
REMARK   77  A    between atoms: _208  and  _210
REMARK   78  A    between atoms: _210  and  _211
REMARK   79  A    between atoms: _210  and  _213
REMARK   80  A    between atoms: _213  and  _214
REMARK   81  A    between atoms: _214  and  _215
REMARK   82  A    between atoms: _217  and  _219
REMARK   83  A    between atoms: _219  and  _220
REMARK   84  A    between atoms: _219  and  _222
REMARK   85  A    between atoms: _222  and  _223
REMARK   86  A    between atoms: _233  and  _235
REMARK   87  A    between atoms: _235  and  _236
REMARK   88  A    between atoms: _235  and  _238
REMARK   89  A    between atoms: _238  and  _239
REMARK   90  A    between atoms: _242  and  _244
REMARK   91  A    between atoms: _244  and  _245
REMARK   92  A    between atoms: _244  and  _247
REMARK   93  A    between atoms: _247  and  _248
REMARK   94  A    between atoms: _248  and  _249
REMARK   95  A    between atoms: _252  and  _254
REMARK   96  A    between atoms: _254  and  _255
REMARK   97  A    between atoms: _254  and  _257
REMARK   98  A    between atoms: _257  and  _258
REMARK   99  A    between atoms: _263  and  _265
REMARK  100  A    between atoms: _265  and  _266
REMARK  101  A    between atoms: _268  and  _270
REMARK  102  A    between atoms: _270  and  _271
REMARK  103  A    between atoms: _274  and  _276
REMARK  104  A    between atoms: _276  and  _277
REMARK  105  A    between atoms: _280  and  _282
REMARK  106  A    between atoms: _282  and  _283
REMARK  107  A    between atoms: _282  and  _285
REMARK  108  A    between atoms: _285  and  _286
REMARK  109  A    between atoms: _296  and  _298
REMARK  110  A    between atoms: _298  and  _299
REMARK  111  A    between atoms: _298  and  _301
REMARK  112  A    between atoms: _301  and  _302
REMARK  113  A    between atoms: _304  and  _306
REMARK  114  A    between atoms: _306  and  _307
REMARK  115  A    between atoms: _306  and  _309
REMARK  116  A    between atoms: _309  and  _310
REMARK  117  A    between atoms: _315  and  _317
REMARK  118  A    between atoms: _317  and  _318
REMARK  119  A    between atoms: _317  and  _320
REMARK  120  A    between atoms: _320  and  _321
REMARK  121  A    between atoms: _327  and  _329
REMARK  122  A    between atoms: _329  and  _330
REMARK  123  A    between atoms: _329  and  _332
REMARK  124  A    between atoms: _332  and  _333
REMARK  125  A    between atoms: _333  and  _334
REMARK  126  A    between atoms: _337  and  _339
REMARK  127  A    between atoms: _339  and  _340
REMARK  128  A    between atoms: _339  and  _342
REMARK  129  A    between atoms: _342  and  _343
REMARK  130  A    between atoms: _353  and  _355
REMARK  131  A    between atoms: _355  and  _356
REMARK  132  A    between atoms: _359  and  _361
REMARK  133  A    between atoms: _361  and  _362
REMARK  134  A    between atoms: _361  and  _364
REMARK  135  A    between atoms: _364  and  _365
REMARK  136  A    between atoms: _365  and  _366
REMARK  137  A    between atoms: _369  and  _371
REMARK  138  A    between atoms: _371  and  _372
REMARK  139  A    between atoms: _371  and  _374
REMARK  140  A    between atoms: _374  and  _375
REMARK  141  A    between atoms: _375  and  _376
REMARK  142  A    between atoms: _376  and  _377
REMARK  143  A    between atoms: _377  and  _378
REMARK  144  A    between atoms: _382  and  _384
REMARK  145  A    between atoms: _384  and  _385
REMARK  146  A    between atoms: _384  and  _387
REMARK  147  A    between atoms: _387  and  _388
REMARK                            x       y       z     vdW  Elec       q    Type
REMARK                         _______ _______ _______ _____ _____    ______ ____
ROOT
ATOM      1  O   HOH     1      -4.222   4.406  15.597  0.00  0.00    +0.000 OA
ENDROOT
TORSDOF 0
REMARK  Name = ../refined-set-2016/2j77/2j77_pocket.pdb
REMARK  147 active torsions:
REMARK  status: ('A' for Active; 'I' for Inactive)
REMARK    1  A    between atoms: _1  and  _3
REMARK    2  A    between atoms: _3  and  _4
REMARK    3  A    between atoms: _7  and  _9
REMARK    4  A    between atoms: _9  and  _10
REMARK    5  A    between atoms: _9  and  _12
REMARK    6  A    between atoms: _12  and  _13
REMARK    7  A    between atoms: _16  and  _18
REMARK    8  A    between atoms: _18  and  _19
REMARK    9  A    between atoms: _22  and  _24
REMARK   10  A    between atoms: _24  and  _25
REMARK   11  A    between atoms: _24  and  _27
REMARK   12  A    between atoms: _27  and  _28
REMARK   13  A    between atoms: _28  and  _29
REMARK   14  A    between atoms: _34  and  _36
REMARK   15  A    between atoms: _36  and  _37
REMARK   16  A    between atoms: _36  and  _39
REMARK   17  A    between atoms: _39  and  _40
REMARK   18  A    between atoms: _40  and  _41
REMARK   19  A    between atoms: _41  and  _42
REMARK   20  A    between atoms: _51  and  _53
REMARK   21  A    between atoms: _53  and  _54
REMARK   22  A    between atoms: _53  and  _56
REMARK   23  A    between atoms: _56  and  _57
REMARK   24  A    between atoms: _60  and  _62
REMARK   25  A    between atoms: _62  and  _63
REMARK   26  A    between atoms: _62  and  _65
REMARK   27  A    between atoms: _65  and  _66
REMARK   28  A    between atoms: _71  and  _73
REMARK   29  A    between atoms: _73  and  _74
REMARK   30  A    between atoms: _73  and  _76
REMARK   31  A    between atoms: _76  and  _77
REMARK   32  A    between atoms: _87  and  _89
REMARK   33  A    between atoms: _89  and  _90
REMARK   34  A    between atoms: _89  and  _92
REMARK   35  A    between atoms: _92  and  _93
REMARK   36  A    between atoms: _98  and  _100
REMARK   37  A    between atoms: _100  and  _101
REMARK   38  A    between atoms: _100  and  _103
REMARK   39  A    between atoms: _103  and  _104
REMARK   40  A    between atoms: _104  and  _105
REMARK   41  A    between atoms: _108  and  _110
REMARK   42  A    between atoms: _110  and  _111
REMARK   43  A    between atoms: _110  and  _113
REMARK   44  A    between atoms: _116  and  _118
REMARK   45  A    between atoms: _118  and  _119
REMARK   46  A    between atoms: _118  and  _121
REMARK   47  A    between atoms: _121  and  _122
REMARK   48  A    between atoms: _127  and  _129
REMARK   49  A    between atoms: _129  and  _130
REMARK   50  A    between atoms: _129  and  _132
REMARK   51  A    between atoms: _135  and  _137
REMARK   52  A    between atoms: _137  and  _138
REMARK   53  A    between atoms: _137  and  _140
REMARK   54  A    between atoms: _140  and  _141
REMARK   55  A    between atoms: _147  and  _149
REMARK   56  A    between atoms: _149  and  _150
REMARK   57  A    between atoms: _149  and  _152
REMARK   58  A    between atoms: _152  and  _153
REMARK   59  A    between atoms: _158  and  _160
REMARK   60  A    between atoms: _160  and  _161
REMARK   61  A    between atoms: _160  and  _163
REMARK   62  A    between atoms: _163  and  _164
REMARK   63  A    between atoms: _169  and  _171
REMARK   64  A    between atoms: _171  and  _172
REMARK   65  A    between atoms: _171  and  _174
REMARK   66  A    between atoms: _174  and  _175
REMARK   67  A    between atoms: _180  and  _182
REMARK   68  A    between atoms: _182  and  _183
REMARK   69  A    between atoms: _182  and  _185
REMARK   70  A    between atoms: _185  and  _186
REMARK   71  A    between atoms: _191  and  _192
REMARK   72  A    between atoms: _194  and  _196
REMARK   73  A    between atoms: _196  and  _197
REMARK   74  A    between atoms: _196  and  _199
REMARK   75  A    between atoms: _199  and  _200
REMARK   76  A    between atoms: _205  and  _206
REMARK   77  A    between atoms: _208  and  _210
REMARK   78  A    between atoms: _210  and  _211
REMARK   79  A    between atoms: _210  and  _213
REMARK   80  A    between atoms: _213  and  _214
REMARK   81  A    between atoms: _214  and  _215
REMARK   82  A    between atoms: _217  and  _219
REMARK   83  A    between atoms: _219  and  _220
REMARK   84  A    between atoms: _219  and  _222
REMARK   85  A    between atoms: _222  and  _223
REMARK   86  A    between atoms: _233  and  _235
REMARK   87  A    between atoms: _235  and  _236
REMARK   88  A    between atoms: _235  and  _238
REMARK   89  A    between atoms: _238  and  _239
REMARK   90  A    between atoms: _242  and  _244
REMARK   91  A    between atoms: _244  and  _245
REMARK   92  A    between atoms: _244  and  _247
REMARK   93  A    between atoms: _247  and  _248
REMARK   94  A    between atoms: _248  and  _249
REMARK   95  A    between atoms: _252  and  _254
REMARK   96  A    between atoms: _254  and  _255
REMARK   97  A    between atoms: _254  and  _257
REMARK   98  A    between atoms: _257  and  _258
REMARK   99  A    between atoms: _263  and  _265
REMARK  100  A    between atoms: _265  and  _266
REMARK  101  A    between atoms: _268  and  _270
REMARK  102  A    between atoms: _270  and  _271
REMARK  103  A    between atoms: _274  and  _276
REMARK  104  A    between atoms: _276  and  _277
REMARK  105  A    between atoms: _280  and  _282
REMARK  106  A    between atoms: _282  and  _283
REMARK  107  A    between atoms: _282  and  _285
REMARK  108  A    between atoms: _285  and  _286
REMARK  109  A    between atoms: _296  and  _298
REMARK  110  A    between atoms: _298  and  _299
REMARK  111  A    between atoms: _298  and  _301
REMARK  112  A    between atoms: _301  and  _302
REMARK  113  A    between atoms: _304  and  _306
REMARK  114  A    between atoms: _306  and  _307
REMARK  115  A    between atoms: _306  and  _309
REMARK  116  A    between atoms: _309  and  _310
REMARK  117  A    between atoms: _315  and  _317
REMARK  118  A    between atoms: _317  and  _318
REMARK  119  A    between atoms: _317  and  _320
REMARK  120  A    between atoms: _320  and  _321
REMARK  121  A    between atoms: _327  and  _329
REMARK  122  A    between atoms: _329  and  _330
REMARK  123  A    between atoms: _329  and  _332
REMARK  124  A    between atoms: _332  and  _333
REMARK  125  A    between atoms: _333  and  _334
REMARK  126  A    between atoms: _337  and  _339
REMARK  127  A    between atoms: _339  and  _340
REMARK  128  A    between atoms: _339  and  _342
REMARK  129  A    between atoms: _342  and  _343
REMARK  130  A    between atoms: _353  and  _355
REMARK  131  A    between atoms: _355  and  _356
REMARK  132  A    between atoms: _359  and  _361
REMARK  133  A    between atoms: _361  and  _362
REMARK  134  A    between atoms: _361  and  _364
REMARK  135  A    between atoms: _364  and  _365
REMARK  136  A    between atoms: _365  and  _366
REMARK  137  A    between atoms: _369  and  _371
REMARK  138  A    between atoms: _371  and  _372
REMARK  139  A    between atoms: _371  and  _374
REMARK  140  A    between atoms: _374  and  _375
REMARK  141  A    between atoms: _375  and  _376
REMARK  142  A    between atoms: _376  and  _377
REMARK  143  A    between atoms: _377  and  _378
REMARK  144  A    between atoms: _382  and  _384
REMARK  145  A    between atoms: _384  and  _385
REMARK  146  A    between atoms: _384  and  _387
REMARK  147  A    between atoms: _387  and  _388
REMARK                            x       y       z     vdW  Elec       q    Type
REMARK                         _______ _______ _______ _____ _____    ______ ____
ROOT
ATOM      1  O   HOH     1      -9.115   6.101   9.601  0.00  0.00    +0.000 OA
ENDROOT
TORSDOF 0
REMARK  Name = ../refined-set-2016/2j77/2j77_pocket.pdb
REMARK  147 active torsions:
REMARK  status: ('A' for Active; 'I' for Inactive)
REMARK    1  A    between atoms: _1  and  _3
REMARK    2  A    between atoms: _3  and  _4
REMARK    3  A    between atoms: _7  and  _9
REMARK    4  A    between atoms: _9  and  _10
REMARK    5  A    between atoms: _9  and  _12
REMARK    6  A    between atoms: _12  and  _13
REMARK    7  A    between atoms: _16  and  _18
REMARK    8  A    between atoms: _18  and  _19
REMARK    9  A    between atoms: _22  and  _24
REMARK   10  A    between atoms: _24  and  _25
REMARK   11  A    between atoms: _24  and  _27
REMARK   12  A    between atoms: _27  and  _28
REMARK   13  A    between atoms: _28  and  _29
REMARK   14  A    between atoms: _34  and  _36
REMARK   15  A    between atoms: _36  and  _37
REMARK   16  A    between atoms: _36  and  _39
REMARK   17  A    between atoms: _39  and  _40
REMARK   18  A    between atoms: _40  and  _41
REMARK   19  A    between atoms: _41  and  _42
REMARK   20  A    between atoms: _51  and  _53
REMARK   21  A    between atoms: _53  and  _54
REMARK   22  A    between atoms: _53  and  _56
REMARK   23  A    between atoms: _56  and  _57
REMARK   24  A    between atoms: _60  and  _62
REMARK   25  A    between atoms: _62  and  _63
REMARK   26  A    between atoms: _62  and  _65
REMARK   27  A    between atoms: _65  and  _66
REMARK   28  A    between atoms: _71  and  _73
REMARK   29  A    between atoms: _73  and  _74
REMARK   30  A    between atoms: _73  and  _76
REMARK   31  A    between atoms: _76  and  _77
REMARK   32  A    between atoms: _87  and  _89
REMARK   33  A    between atoms: _89  and  _90
REMARK   34  A    between atoms: _89  and  _92
REMARK   35  A    between atoms: _92  and  _93
REMARK   36  A    between atoms: _98  and  _100
REMARK   37  A    between atoms: _100  and  _101
REMARK   38  A    between atoms: _100  and  _103
REMARK   39  A    between atoms: _103  and  _104
REMARK   40  A    between atoms: _104  and  _105
REMARK   41  A    between atoms: _108  and  _110
REMARK   42  A    between atoms: _110  and  _111
REMARK   43  A    between atoms: _110  and  _113
REMARK   44  A    between atoms: _116  and  _118
REMARK   45  A    between atoms: _118  and  _119
REMARK   46  A    between atoms: _118  and  _121
REMARK   47  A    between atoms: _121  and  _122
REMARK   48  A    between atoms: _127  and  _129
REMARK   49  A    between atoms: _129  and  _130
REMARK   50  A    between atoms: _129  and  _132
REMARK   51  A    between atoms: _135  and  _137
REMARK   52  A    between atoms: _137  and  _138
REMARK   53  A    between atoms: _137  and  _140
REMARK   54  A    between atoms: _140  and  _141
REMARK   55  A    between atoms: _147  and  _149
REMARK   56  A    between atoms: _149  and  _150
REMARK   57  A    between atoms: _149  and  _152
REMARK   58  A    between atoms: _152  and  _153
REMARK   59  A    between atoms: _158  and  _160
REMARK   60  A    between atoms: _160  and  _161
REMARK   61  A    between atoms: _160  and  _163
REMARK   62  A    between atoms: _163  and  _164
REMARK   63  A    between atoms: _169  and  _171
REMARK   64  A    between atoms: _171  and  _172
REMARK   65  A    between atoms: _171  and  _174
REMARK   66  A    between atoms: _174  and  _175
REMARK   67  A    between atoms: _180  and  _182
REMARK   68  A    between atoms: _182  and  _183
REMARK   69  A    between atoms: _182  and  _185
REMARK   70  A    between atoms: _185  and  _186
REMARK   71  A    between atoms: _191  and  _192
REMARK   72  A    between atoms: _194  and  _196
REMARK   73  A    between atoms: _196  and  _197
REMARK   74  A    between atoms: _196  and  _199
REMARK   75  A    between atoms: _199  and  _200
REMARK   76  A    between atoms: _205  and  _206
REMARK   77  A    between atoms: _208  and  _210
REMARK   78  A    between atoms: _210  and  _211
REMARK   79  A    between atoms: _210  and  _213
REMARK   80  A    between atoms: _213  and  _214
REMARK   81  A    between atoms: _214  and  _215
REMARK   82  A    between atoms: _217  and  _219
REMARK   83  A    between atoms: _219  and  _220
REMARK   84  A    between atoms: _219  and  _222
REMARK   85  A    between atoms: _222  and  _223
REMARK   86  A    between atoms: _233  and  _235
REMARK   87  A    between atoms: _235  and  _236
REMARK   88  A    between atoms: _235  and  _238
REMARK   89  A    between atoms: _238  and  _239
REMARK   90  A    between atoms: _242  and  _244
REMARK   91  A    between atoms: _244  and  _245
REMARK   92  A    between atoms: _244  and  _247
REMARK   93  A    between atoms: _247  and  _248
REMARK   94  A    between atoms: _248  and  _249
REMARK   95  A    between atoms: _252  and  _254
REMARK   96  A    between atoms: _254  and  _255
REMARK   97  A    between atoms: _254  and  _257
REMARK   98  A    between atoms: _257  and  _258
REMARK   99  A    between atoms: _263  and  _265
REMARK  100  A    between atoms: _265  and  _266
REMARK  101  A    between atoms: _268  and  _270
REMARK  102  A    between atoms: _270  and  _271
REMARK  103  A    between atoms: _274  and  _276
REMARK  104  A    between atoms: _276  and  _277
REMARK  105  A    between atoms: _280  and  _282
REMARK  106  A    between atoms: _282  and  _283
REMARK  107  A    between atoms: _282  and  _285
REMARK  108  A    between atoms: _285  and  _286
REMARK  109  A    between atoms: _296  and  _298
REMARK  110  A    between atoms: _298  and  _299
REMARK  111  A    between atoms: _298  and  _301
REMARK  112  A    between atoms: _301  and  _302
REMARK  113  A    between atoms: _304  and  _306
REMARK  114  A    between atoms: _306  and  _307
REMARK  115  A    between atoms: _306  and  _309
REMARK  116  A    between atoms: _309  and  _310
REMARK  117  A    between atoms: _315  and  _317
REMARK  118  A    between atoms: _317  and  _318
REMARK  119  A    between atoms: _317  and  _320
REMARK  120  A    between atoms: _320  and  _321
REMARK  121  A    between atoms: _327  and  _329
REMARK  122  A    between atoms: _329  and  _330
REMARK  123  A    between atoms: _329  and  _332
REMARK  124  A    between atoms: _332  and  _333
REMARK  125  A    between atoms: _333  and  _334
REMARK  126  A    between atoms: _337  and  _339
REMARK  127  A    between atoms: _339  and  _340
REMARK  128  A    between atoms: _339  and  _342
REMARK  129  A    between atoms: _342  and  _343
REMARK  130  A    between atoms: _353  and  _355
REMARK  131  A    between atoms: _355  and  _356
REMARK  132  A    between atoms: _359  and  _361
REMARK  133  A    between atoms: _361  and  _362
REMARK  134  A    between atoms: _361  and  _364
REMARK  135  A    between atoms: _364  and  _365
REMARK  136  A    between atoms: _365  and  _366
REMARK  137  A    between atoms: _369  and  _371
REMARK  138  A    between atoms: _371  and  _372
REMARK  139  A    between atoms: _371  and  _374
REMARK  140  A    between atoms: _374  and  _375
REMARK  141  A    between atoms: _375  and  _376
REMARK  142  A    between atoms: _376  and  _377
REMARK  143  A    between atoms: _377  and  _378
REMARK  144  A    between atoms: _382  and  _384
REMARK  145  A    between atoms: _384  and  _385
REMARK  146  A    between atoms: _384  and  _387
REMARK  147  A    between atoms: _387  and  _388
REMARK                            x       y       z     vdW  Elec       q    Type
REMARK                         _______ _______ _______ _____ _____    ______ ____
ROOT
ATOM      1  O   HOH     1      -9.887   7.382  11.823  0.00  0.00    +0.000 OA
ENDROOT
TORSDOF 0
REMARK  Name = ../refined-set-2016/2j77/2j77_pocket.pdb
REMARK  147 active torsions:
REMARK  status: ('A' for Active; 'I' for Inactive)
REMARK    1  A    between atoms: _1  and  _3
REMARK    2  A    between atoms: _3  and  _4
REMARK    3  A    between atoms: _7  and  _9
REMARK    4  A    between atoms: _9  and  _10
REMARK    5  A    between atoms: _9  and  _12
REMARK    6  A    between atoms: _12  and  _13
REMARK    7  A    between atoms: _16  and  _18
REMARK    8  A    between atoms: _18  and  _19
REMARK    9  A    between atoms: _22  and  _24
REMARK   10  A    between atoms: _24  and  _25
REMARK   11  A    between atoms: _24  and  _27
REMARK   12  A    between atoms: _27  and  _28
REMARK   13  A    between atoms: _28  and  _29
REMARK   14  A    between atoms: _34  and  _36
REMARK   15  A    between atoms: _36  and  _37
REMARK   16  A    between atoms: _36  and  _39
REMARK   17  A    between atoms: _39  and  _40
REMARK   18  A    between atoms: _40  and  _41
REMARK   19  A    between atoms: _41  and  _42
REMARK   20  A    between atoms: _51  and  _53
REMARK   21  A    between atoms: _53  and  _54
REMARK   22  A    between atoms: _53  and  _56
REMARK   23  A    between atoms: _56  and  _57
REMARK   24  A    between atoms: _60  and  _62
REMARK   25  A    between atoms: _62  and  _63
REMARK   26  A    between atoms: _62  and  _65
REMARK   27  A    between atoms: _65  and  _66
REMARK   28  A    between atoms: _71  and  _73
REMARK   29  A    between atoms: _73  and  _74
REMARK   30  A    between atoms: _73  and  _76
REMARK   31  A    between atoms: _76  and  _77
REMARK   32  A    between atoms: _87  and  _89
REMARK   33  A    between atoms: _89  and  _90
REMARK   34  A    between atoms: _89  and  _92
REMARK   35  A    between atoms: _92  and  _93
REMARK   36  A    between atoms: _98  and  _100
REMARK   37  A    between atoms: _100  and  _101
REMARK   38  A    between atoms: _100  and  _103
REMARK   39  A    between atoms: _103  and  _104
REMARK   40  A    between atoms: _104  and  _105
REMARK   41  A    between atoms: _108  and  _110
REMARK   42  A    between atoms: _110  and  _111
REMARK   43  A    between atoms: _110  and  _113
REMARK   44  A    between atoms: _116  and  _118
REMARK   45  A    between atoms: _118  and  _119
REMARK   46  A    between atoms: _118  and  _121
REMARK   47  A    between atoms: _121  and  _122
REMARK   48  A    between atoms: _127  and  _129
REMARK   49  A    between atoms: _129  and  _130
REMARK   50  A    between atoms: _129  and  _132
REMARK   51  A    between atoms: _135  and  _137
REMARK   52  A    between atoms: _137  and  _138
REMARK   53  A    between atoms: _137  and  _140
REMARK   54  A    between atoms: _140  and  _141
REMARK   55  A    between atoms: _147  and  _149
REMARK   56  A    between atoms: _149  and  _150
REMARK   57  A    between atoms: _149  and  _152
REMARK   58  A    between atoms: _152  and  _153
REMARK   59  A    between atoms: _158  and  _160
REMARK   60  A    between atoms: _160  and  _161
REMARK   61  A    between atoms: _160  and  _163
REMARK   62  A    between atoms: _163  and  _164
REMARK   63  A    between atoms: _169  and  _171
REMARK   64  A    between atoms: _171  and  _172
REMARK   65  A    between atoms: _171  and  _174
REMARK   66  A    between atoms: _174  and  _175
REMARK   67  A    between atoms: _180  and  _182
REMARK   68  A    between atoms: _182  and  _183
REMARK   69  A    between atoms: _182  and  _185
REMARK   70  A    between atoms: _185  and  _186
REMARK   71  A    between atoms: _191  and  _192
REMARK   72  A    between atoms: _194  and  _196
REMARK   73  A    between atoms: _196  and  _197
REMARK   74  A    between atoms: _196  and  _199
REMARK   75  A    between atoms: _199  and  _200
REMARK   76  A    between atoms: _205  and  _206
REMARK   77  A    between atoms: _208  and  _210
REMARK   78  A    between atoms: _210  and  _211
REMARK   79  A    between atoms: _210  and  _213
REMARK   80  A    between atoms: _213  and  _214
REMARK   81  A    between atoms: _214  and  _215
REMARK   82  A    between atoms: _217  and  _219
REMARK   83  A    between atoms: _219  and  _220
REMARK   84  A    between atoms: _219  and  _222
REMARK   85  A    between atoms: _222  and  _223
REMARK   86  A    between atoms: _233  and  _235
REMARK   87  A    between atoms: _235  and  _236
REMARK   88  A    between atoms: _235  and  _238
REMARK   89  A    between atoms: _238  and  _239
REMARK   90  A    between atoms: _242  and  _244
REMARK   91  A    between atoms: _244  and  _245
REMARK   92  A    between atoms: _244  and  _247
REMARK   93  A    between atoms: _247  and  _248
REMARK   94  A    between atoms: _248  and  _249
REMARK   95  A    between atoms: _252  and  _254
REMARK   96  A    between atoms: _254  and  _255
REMARK   97  A    between atoms: _254  and  _257
REMARK   98  A    between atoms: _257  and  _258
REMARK   99  A    between atoms: _263  and  _265
REMARK  100  A    between atoms: _265  and  _266
REMARK  101  A    between atoms: _268  and  _270
REMARK  102  A    between atoms: _270  and  _271
REMARK  103  A    between atoms: _274  and  _276
REMARK  104  A    between atoms: _276  and  _277
REMARK  105  A    between atoms: _280  and  _282
REMARK  106  A    between atoms: _282  and  _283
REMARK  107  A    between atoms: _282  and  _285
REMARK  108  A    between atoms: _285  and  _286
REMARK  109  A    between atoms: _296  and  _298
REMARK  110  A    between atoms: _298  and  _299
REMARK  111  A    between atoms: _298  and  _301
REMARK  112  A    between atoms: _301  and  _302
REMARK  113  A    between atoms: _304  and  _306
REMARK  114  A    between atoms: _306  and  _307
REMARK  115  A    between atoms: _306  and  _309
REMARK  116  A    between atoms: _309  and  _310
REMARK  117  A    between atoms: _315  and  _317
REMARK  118  A    between atoms: _317  and  _318
REMARK  119  A    between atoms: _317  and  _320
REMARK  120  A    between atoms: _320  and  _321
REMARK  121  A    between atoms: _327  and  _329
REMARK  122  A    between atoms: _329  and  _330
REMARK  123  A    between atoms: _329  and  _332
REMARK  124  A    between atoms: _332  and  _333
REMARK  125  A    between atoms: _333  and  _334
REMARK  126  A    between atoms: _337  and  _339
REMARK  127  A    between atoms: _339  and  _340
REMARK  128  A    between atoms: _339  and  _342
REMARK  129  A    between atoms: _342  and  _343
REMARK  130  A    between atoms: _353  and  _355
REMARK  131  A    between atoms: _355  and  _356
REMARK  132  A    between atoms: _359  and  _361
REMARK  133  A    between atoms: _361  and  _362
REMARK  134  A    between atoms: _361  and  _364
REMARK  135  A    between atoms: _364  and  _365
REMARK  136  A    between atoms: _365  and  _366
REMARK  137  A    between atoms: _369  and  _371
REMARK  138  A    between atoms: _371  and  _372
REMARK  139  A    between atoms: _371  and  _374
REMARK  140  A    between atoms: _374  and  _375
REMARK  141  A    between atoms: _375  and  _376
REMARK  142  A    between atoms: _376  and  _377
REMARK  143  A    between atoms: _377  and  _378
REMARK  144  A    between atoms: _382  and  _384
REMARK  145  A    between atoms: _384  and  _385
REMARK  146  A    between atoms: _384  and  _387
REMARK  147  A    between atoms: _387  and  _388
REMARK                            x       y       z     vdW  Elec       q    Type
REMARK                         _______ _______ _______ _____ _____    ______ ____
ROOT
ATOM      1  O   HOH     1      -3.979  10.414   4.153  0.00  0.00    +0.000 OA
ENDROOT
TORSDOF 0
REMARK  Name = ../refined-set-2016/2j77/2j77_pocket.pdb
REMARK  147 active torsions:
REMARK  status: ('A' for Active; 'I' for Inactive)
REMARK    1  A    between atoms: _1  and  _3
REMARK    2  A    between atoms: _3  and  _4
REMARK    3  A    between atoms: _7  and  _9
REMARK    4  A    between atoms: _9  and  _10
REMARK    5  A    between atoms: _9  and  _12
REMARK    6  A    between atoms: _12  and  _13
REMARK    7  A    between atoms: _16  and  _18
REMARK    8  A    between atoms: _18  and  _19
REMARK    9  A    between atoms: _22  and  _24
REMARK   10  A    between atoms: _24  and  _25
REMARK   11  A    between atoms: _24  and  _27
REMARK   12  A    between atoms: _27  and  _28
REMARK   13  A    between atoms: _28  and  _29
REMARK   14  A    between atoms: _34  and  _36
REMARK   15  A    between atoms: _36  and  _37
REMARK   16  A    between atoms: _36  and  _39
REMARK   17  A    between atoms: _39  and  _40
REMARK   18  A    between atoms: _40  and  _41
REMARK   19  A    between atoms: _41  and  _42
REMARK   20  A    between atoms: _51  and  _53
REMARK   21  A    between atoms: _53  and  _54
REMARK   22  A    between atoms: _53  and  _56
REMARK   23  A    between atoms: _56  and  _57
REMARK   24  A    between atoms: _60  and  _62
REMARK   25  A    between atoms: _62  and  _63
REMARK   26  A    between atoms: _62  and  _65
REMARK   27  A    between atoms: _65  and  _66
REMARK   28  A    between atoms: _71  and  _73
REMARK   29  A    between atoms: _73  and  _74
REMARK   30  A    between atoms: _73  and  _76
REMARK   31  A    between atoms: _76  and  _77
REMARK   32  A    between atoms: _87  and  _89
REMARK   33  A    between atoms: _89  and  _90
REMARK   34  A    between atoms: _89  and  _92
REMARK   35  A    between atoms: _92  and  _93
REMARK   36  A    between atoms: _98  and  _100
REMARK   37  A    between atoms: _100  and  _101
REMARK   38  A    between atoms: _100  and  _103
REMARK   39  A    between atoms: _103  and  _104
REMARK   40  A    between atoms: _104  and  _105
REMARK   41  A    between atoms: _108  and  _110
REMARK   42  A    between atoms: _110  and  _111
REMARK   43  A    between atoms: _110  and  _113
REMARK   44  A    between atoms: _116  and  _118
REMARK   45  A    between atoms: _118  and  _119
REMARK   46  A    between atoms: _118  and  _121
REMARK   47  A    between atoms: _121  and  _122
REMARK   48  A    between atoms: _127  and  _129
REMARK   49  A    between atoms: _129  and  _130
REMARK   50  A    between atoms: _129  and  _132
REMARK   51  A    between atoms: _135  and  _137
REMARK   52  A    between atoms: _137  and  _138
REMARK   53  A    between atoms: _137  and  _140
REMARK   54  A    between atoms: _140  and  _141
REMARK   55  A    between atoms: _147  and  _149
REMARK   56  A    between atoms: _149  and  _150
REMARK   57  A    between atoms: _149  and  _152
REMARK   58  A    between atoms: _152  and  _153
REMARK   59  A    between atoms: _158  and  _160
REMARK   60  A    between atoms: _160  and  _161
REMARK   61  A    between atoms: _160  and  _163
REMARK   62  A    between atoms: _163  and  _164
REMARK   63  A    between atoms: _169  and  _171
REMARK   64  A    between atoms: _171  and  _172
REMARK   65  A    between atoms: _171  and  _174
REMARK   66  A    between atoms: _174  and  _175
REMARK   67  A    between atoms: _180  and  _182
REMARK   68  A    between atoms: _182  and  _183
REMARK   69  A    between atoms: _182  and  _185
REMARK   70  A    between atoms: _185  and  _186
REMARK   71  A    between atoms: _191  and  _192
REMARK   72  A    between atoms: _194  and  _196
REMARK   73  A    between atoms: _196  and  _197
REMARK   74  A    between atoms: _196  and  _199
REMARK   75  A    between atoms: _199  and  _200
REMARK   76  A    between atoms: _205  and  _206
REMARK   77  A    between atoms: _208  and  _210
REMARK   78  A    between atoms: _210  and  _211
REMARK   79  A    between atoms: _210  and  _213
REMARK   80  A    between atoms: _213  and  _214
REMARK   81  A    between atoms: _214  and  _215
REMARK   82  A    between atoms: _217  and  _219
REMARK   83  A    between atoms: _219  and  _220
REMARK   84  A    between atoms: _219  and  _222
REMARK   85  A    between atoms: _222  and  _223
REMARK   86  A    between atoms: _233  and  _235
REMARK   87  A    between atoms: _235  and  _236
REMARK   88  A    between atoms: _235  and  _238
REMARK   89  A    between atoms: _238  and  _239
REMARK   90  A    between atoms: _242  and  _244
REMARK   91  A    between atoms: _244  and  _245
REMARK   92  A    between atoms: _244  and  _247
REMARK   93  A    between atoms: _247  and  _248
REMARK   94  A    between atoms: _248  and  _249
REMARK   95  A    between atoms: _252  and  _254
REMARK   96  A    between atoms: _254  and  _255
REMARK   97  A    between atoms: _254  and  _257
REMARK   98  A    between atoms: _257  and  _258
REMARK   99  A    between atoms: _263  and  _265
REMARK  100  A    between atoms: _265  and  _266
REMARK  101  A    between atoms: _268  and  _270
REMARK  102  A    between atoms: _270  and  _271
REMARK  103  A    between atoms: _274  and  _276
REMARK  104  A    between atoms: _276  and  _277
REMARK  105  A    between atoms: _280  and  _282
REMARK  106  A    between atoms: _282  and  _283
REMARK  107  A    between atoms: _282  and  _285
REMARK  108  A    between atoms: _285  and  _286
REMARK  109  A    between atoms: _296  and  _298
REMARK  110  A    between atoms: _298  and  _299
REMARK  111  A    between atoms: _298  and  _301
REMARK  112  A    between atoms: _301  and  _302
REMARK  113  A    between atoms: _304  and  _306
REMARK  114  A    between atoms: _306  and  _307
REMARK  115  A    between atoms: _306  and  _309
REMARK  116  A    between atoms: _309  and  _310
REMARK  117  A    between atoms: _315  and  _317
REMARK  118  A    between atoms: _317  and  _318
REMARK  119  A    between atoms: _317  and  _320
REMARK  120  A    between atoms: _320  and  _321
REMARK  121  A    between atoms: _327  and  _329
REMARK  122  A    between atoms: _329  and  _330
REMARK  123  A    between atoms: _329  and  _332
REMARK  124  A    between atoms: _332  and  _333
REMARK  125  A    between atoms: _333  and  _334
REMARK  126  A    between atoms: _337  and  _339
REMARK  127  A    between atoms: _339  and  _340
REMARK  128  A    between atoms: _339  and  _342
REMARK  129  A    between atoms: _342  and  _343
REMARK  130  A    between atoms: _353  and  _355
REMARK  131  A    between atoms: _355  and  _356
REMARK  132  A    between atoms: _359  and  _361
REMARK  133  A    between atoms: _361  and  _362
REMARK  134  A    between atoms: _361  and  _364
REMARK  135  A    between atoms: _364  and  _365
REMARK  136  A    between atoms: _365  and  _366
REMARK  137  A    between atoms: _369  and  _371
REMARK  138  A    between atoms: _371  and  _372
REMARK  139  A    between atoms: _371  and  _374
REMARK  140  A    between atoms: _374  and  _375
REMARK  141  A    between atoms: _375  and  _376
REMARK  142  A    between atoms: _376  and  _377
REMARK  143  A    between atoms: _377  and  _378
REMARK  144  A    between atoms: _382  and  _384
REMARK  145  A    between atoms: _384  and  _385
REMARK  146  A    between atoms: _384  and  _387
REMARK  147  A    between atoms: _387  and  _388
REMARK                            x       y       z     vdW  Elec       q    Type
REMARK                         _______ _______ _______ _____ _____    ______ ____
ROOT
ATOM      1  O   HOH     1      -0.619   5.117   7.471  0.00  0.00    +0.000 OA
ENDROOT
TORSDOF 0
REMARK  Name = ../refined-set-2016/2j77/2j77_pocket.pdb
REMARK  147 active torsions:
REMARK  status: ('A' for Active; 'I' for Inactive)
REMARK    1  A    between atoms: _1  and  _3
REMARK    2  A    between atoms: _3  and  _4
REMARK    3  A    between atoms: _7  and  _9
REMARK    4  A    between atoms: _9  and  _10
REMARK    5  A    between atoms: _9  and  _12
REMARK    6  A    between atoms: _12  and  _13
REMARK    7  A    between atoms: _16  and  _18
REMARK    8  A    between atoms: _18  and  _19
REMARK    9  A    between atoms: _22  and  _24
REMARK   10  A    between atoms: _24  and  _25
REMARK   11  A    between atoms: _24  and  _27
REMARK   12  A    between atoms: _27  and  _28
REMARK   13  A    between atoms: _28  and  _29
REMARK   14  A    between atoms: _34  and  _36
REMARK   15  A    between atoms: _36  and  _37
REMARK   16  A    between atoms: _36  and  _39
REMARK   17  A    between atoms: _39  and  _40
REMARK   18  A    between atoms: _40  and  _41
REMARK   19  A    between atoms: _41  and  _42
REMARK   20  A    between atoms: _51  and  _53
REMARK   21  A    between atoms: _53  and  _54
REMARK   22  A    between atoms: _53  and  _56
REMARK   23  A    between atoms: _56  and  _57
REMARK   24  A    between atoms: _60  and  _62
REMARK   25  A    between atoms: _62  and  _63
REMARK   26  A    between atoms: _62  and  _65
REMARK   27  A    between atoms: _65  and  _66
REMARK   28  A    between atoms: _71  and  _73
REMARK   29  A    between atoms: _73  and  _74
REMARK   30  A    between atoms: _73  and  _76
REMARK   31  A    between atoms: _76  and  _77
REMARK   32  A    between atoms: _87  and  _89
REMARK   33  A    between atoms: _89  and  _90
REMARK   34  A    between atoms: _89  and  _92
REMARK   35  A    between atoms: _92  and  _93
REMARK   36  A    between atoms: _98  and  _100
REMARK   37  A    between atoms: _100  and  _101
REMARK   38  A    between atoms: _100  and  _103
REMARK   39  A    between atoms: _103  and  _104
REMARK   40  A    between atoms: _104  and  _105
REMARK   41  A    between atoms: _108  and  _110
REMARK   42  A    between atoms: _110  and  _111
REMARK   43  A    between atoms: _110  and  _113
REMARK   44  A    between atoms: _116  and  _118
REMARK   45  A    between atoms: _118  and  _119
REMARK   46  A    between atoms: _118  and  _121
REMARK   47  A    between atoms: _121  and  _122
REMARK   48  A    between atoms: _127  and  _129
REMARK   49  A    between atoms: _129  and  _130
REMARK   50  A    between atoms: _129  and  _132
REMARK   51  A    between atoms: _135  and  _137
REMARK   52  A    between atoms: _137  and  _138
REMARK   53  A    between atoms: _137  and  _140
REMARK   54  A    between atoms: _140  and  _141
REMARK   55  A    between atoms: _147  and  _149
REMARK   56  A    between atoms: _149  and  _150
REMARK   57  A    between atoms: _149  and  _152
REMARK   58  A    between atoms: _152  and  _153
REMARK   59  A    between atoms: _158  and  _160
REMARK   60  A    between atoms: _160  and  _161
REMARK   61  A    between atoms: _160  and  _163
REMARK   62  A    between atoms: _163  and  _164
REMARK   63  A    between atoms: _169  and  _171
REMARK   64  A    between atoms: _171  and  _172
REMARK   65  A    between atoms: _171  and  _174
REMARK   66  A    between atoms: _174  and  _175
REMARK   67  A    between atoms: _180  and  _182
REMARK   68  A    between atoms: _182  and  _183
REMARK   69  A    between atoms: _182  and  _185
REMARK   70  A    between atoms: _185  and  _186
REMARK   71  A    between atoms: _191  and  _192
REMARK   72  A    between atoms: _194  and  _196
REMARK   73  A    between atoms: _196  and  _197
REMARK   74  A    between atoms: _196  and  _199
REMARK   75  A    between atoms: _199  and  _200
REMARK   76  A    between atoms: _205  and  _206
REMARK   77  A    between atoms: _208  and  _210
REMARK   78  A    between atoms: _210  and  _211
REMARK   79  A    between atoms: _210  and  _213
REMARK   80  A    between atoms: _213  and  _214
REMARK   81  A    between atoms: _214  and  _215
REMARK   82  A    between atoms: _217  and  _219
REMARK   83  A    between atoms: _219  and  _220
REMARK   84  A    between atoms: _219  and  _222
REMARK   85  A    between atoms: _222  and  _223
REMARK   86  A    between atoms: _233  and  _235
REMARK   87  A    between atoms: _235  and  _236
REMARK   88  A    between atoms: _235  and  _238
REMARK   89  A    between atoms: _238  and  _239
REMARK   90  A    between atoms: _242  and  _244
REMARK   91  A    between atoms: _244  and  _245
REMARK   92  A    between atoms: _244  and  _247
REMARK   93  A    between atoms: _247  and  _248
REMARK   94  A    between atoms: _248  and  _249
REMARK   95  A    between atoms: _252  and  _254
REMARK   96  A    between atoms: _254  and  _255
REMARK   97  A    between atoms: _254  and  _257
REMARK   98  A    between atoms: _257  and  _258
REMARK   99  A    between atoms: _263  and  _265
REMARK  100  A    between atoms: _265  and  _266
REMARK  101  A    between atoms: _268  and  _270
REMARK  102  A    between atoms: _270  and  _271
REMARK  103  A    between atoms: _274  and  _276
REMARK  104  A    between atoms: _276  and  _277
REMARK  105  A    between atoms: _280  and  _282
REMARK  106  A    between atoms: _282  and  _283
REMARK  107  A    between atoms: _282  and  _285
REMARK  108  A    between atoms: _285  and  _286
REMARK  109  A    between atoms: _296  and  _298
REMARK  110  A    between atoms: _298  and  _299
REMARK  111  A    between atoms: _298  and  _301
REMARK  112  A    between atoms: _301  and  _302
REMARK  113  A    between atoms: _304  and  _306
REMARK  114  A    between atoms: _306  and  _307
REMARK  115  A    between atoms: _306  and  _309
REMARK  116  A    between atoms: _309  and  _310
REMARK  117  A    between atoms: _315  and  _317
REMARK  118  A    between atoms: _317  and  _318
REMARK  119  A    between atoms: _317  and  _320
REMARK  120  A    between atoms: _320  and  _321
REMARK  121  A    between atoms: _327  and  _329
REMARK  122  A    between atoms: _329  and  _330
REMARK  123  A    between atoms: _329  and  _332
REMARK  124  A    between atoms: _332  and  _333
REMARK  125  A    between atoms: _333  and  _334
REMARK  126  A    between atoms: _337  and  _339
REMARK  127  A    between atoms: _339  and  _340
REMARK  128  A    between atoms: _339  and  _342
REMARK  129  A    between atoms: _342  and  _343
REMARK  130  A    between atoms: _353  and  _355
REMARK  131  A    between atoms: _355  and  _356
REMARK  132  A    between atoms: _359  and  _361
REMARK  133  A    between atoms: _361  and  _362
REMARK  134  A    between atoms: _361  and  _364
REMARK  135  A    between atoms: _364  and  _365
REMARK  136  A    between atoms: _365  and  _366
REMARK  137  A    between atoms: _369  and  _371
REMARK  138  A    between atoms: _371  and  _372
REMARK  139  A    between atoms: _371  and  _374
REMARK  140  A    between atoms: _374  and  _375
REMARK  141  A    between atoms: _375  and  _376
REMARK  142  A    between atoms: _376  and  _377
REMARK  143  A    between atoms: _377  and  _378
REMARK  144  A    between atoms: _382  and  _384
REMARK  145  A    between atoms: _384  and  _385
REMARK  146  A    between atoms: _384  and  _387
REMARK  147  A    between atoms: _387  and  _388
REMARK                            x       y       z     vdW  Elec       q    Type
REMARK                         _______ _______ _______ _____ _____    ______ ____
ROOT
ATOM      1  O   HOH     1       0.725   1.085   7.041  0.00  0.00    +0.000 OA
ENDROOT
TORSDOF 0
REMARK  Name = ../refined-set-2016/2j77/2j77_pocket.pdb
REMARK  147 active torsions:
REMARK  status: ('A' for Active; 'I' for Inactive)
REMARK    1  A    between atoms: _1  and  _3
REMARK    2  A    between atoms: _3  and  _4
REMARK    3  A    between atoms: _7  and  _9
REMARK    4  A    between atoms: _9  and  _10
REMARK    5  A    between atoms: _9  and  _12
REMARK    6  A    between atoms: _12  and  _13
REMARK    7  A    between atoms: _16  and  _18
REMARK    8  A    between atoms: _18  and  _19
REMARK    9  A    between atoms: _22  and  _24
REMARK   10  A    between atoms: _24  and  _25
REMARK   11  A    between atoms: _24  and  _27
REMARK   12  A    between atoms: _27  and  _28
REMARK   13  A    between atoms: _28  and  _29
REMARK   14  A    between atoms: _34  and  _36
REMARK   15  A    between atoms: _36  and  _37
REMARK   16  A    between atoms: _36  and  _39
REMARK   17  A    between atoms: _39  and  _40
REMARK   18  A    between atoms: _40  and  _41
REMARK   19  A    between atoms: _41  and  _42
REMARK   20  A    between atoms: _51  and  _53
REMARK   21  A    between atoms: _53  and  _54
REMARK   22  A    between atoms: _53  and  _56
REMARK   23  A    between atoms: _56  and  _57
REMARK   24  A    between atoms: _60  and  _62
REMARK   25  A    between atoms: _62  and  _63
REMARK   26  A    between atoms: _62  and  _65
REMARK   27  A    between atoms: _65  and  _66
REMARK   28  A    between atoms: _71  and  _73
REMARK   29  A    between atoms: _73  and  _74
REMARK   30  A    between atoms: _73  and  _76
REMARK   31  A    between atoms: _76  and  _77
REMARK   32  A    between atoms: _87  and  _89
REMARK   33  A    between atoms: _89  and  _90
REMARK   34  A    between atoms: _89  and  _92
REMARK   35  A    between atoms: _92  and  _93
REMARK   36  A    between atoms: _98  and  _100
REMARK   37  A    between atoms: _100  and  _101
REMARK   38  A    between atoms: _100  and  _103
REMARK   39  A    between atoms: _103  and  _104
REMARK   40  A    between atoms: _104  and  _105
REMARK   41  A    between atoms: _108  and  _110
REMARK   42  A    between atoms: _110  and  _111
REMARK   43  A    between atoms: _110  and  _113
REMARK   44  A    between atoms: _116  and  _118
REMARK   45  A    between atoms: _118  and  _119
REMARK   46  A    between atoms: _118  and  _121
REMARK   47  A    between atoms: _121  and  _122
REMARK   48  A    between atoms: _127  and  _129
REMARK   49  A    between atoms: _129  and  _130
REMARK   50  A    between atoms: _129  and  _132
REMARK   51  A    between atoms: _135  and  _137
REMARK   52  A    between atoms: _137  and  _138
REMARK   53  A    between atoms: _137  and  _140
REMARK   54  A    between atoms: _140  and  _141
REMARK   55  A    between atoms: _147  and  _149
REMARK   56  A    between atoms: _149  and  _150
REMARK   57  A    between atoms: _149  and  _152
REMARK   58  A    between atoms: _152  and  _153
REMARK   59  A    between atoms: _158  and  _160
REMARK   60  A    between atoms: _160  and  _161
REMARK   61  A    between atoms: _160  and  _163
REMARK   62  A    between atoms: _163  and  _164
REMARK   63  A    between atoms: _169  and  _171
REMARK   64  A    between atoms: _171  and  _172
REMARK   65  A    between atoms: _171  and  _174
REMARK   66  A    between atoms: _174  and  _175
REMARK   67  A    between atoms: _180  and  _182
REMARK   68  A    between atoms: _182  and  _183
REMARK   69  A    between atoms: _182  and  _185
REMARK   70  A    between atoms: _185  and  _186
REMARK   71  A    between atoms: _191  and  _192
REMARK   72  A    between atoms: _194  and  _196
REMARK   73  A    between atoms: _196  and  _197
REMARK   74  A    between atoms: _196  and  _199
REMARK   75  A    between atoms: _199  and  _200
REMARK   76  A    between atoms: _205  and  _206
REMARK   77  A    between atoms: _208  and  _210
REMARK   78  A    between atoms: _210  and  _211
REMARK   79  A    between atoms: _210  and  _213
REMARK   80  A    between atoms: _213  and  _214
REMARK   81  A    between atoms: _214  and  _215
REMARK   82  A    between atoms: _217  and  _219
REMARK   83  A    between atoms: _219  and  _220
REMARK   84  A    between atoms: _219  and  _222
REMARK   85  A    between atoms: _222  and  _223
REMARK   86  A    between atoms: _233  and  _235
REMARK   87  A    between atoms: _235  and  _236
REMARK   88  A    between atoms: _235  and  _238
REMARK   89  A    between atoms: _238  and  _239
REMARK   90  A    between atoms: _242  and  _244
REMARK   91  A    between atoms: _244  and  _245
REMARK   92  A    between atoms: _244  and  _247
REMARK   93  A    between atoms: _247  and  _248
REMARK   94  A    between atoms: _248  and  _249
REMARK   95  A    between atoms: _252  and  _254
REMARK   96  A    between atoms: _254  and  _255
REMARK   97  A    between atoms: _254  and  _257
REMARK   98  A    between atoms: _257  and  _258
REMARK   99  A    between atoms: _263  and  _265
REMARK  100  A    between atoms: _265  and  _266
REMARK  101  A    between atoms: _268  and  _270
REMARK  102  A    between atoms: _270  and  _271
REMARK  103  A    between atoms: _274  and  _276
REMARK  104  A    between atoms: _276  and  _277
REMARK  105  A    between atoms: _280  and  _282
REMARK  106  A    between atoms: _282  and  _283
REMARK  107  A    between atoms: _282  and  _285
REMARK  108  A    between atoms: _285  and  _286
REMARK  109  A    between atoms: _296  and  _298
REMARK  110  A    between atoms: _298  and  _299
REMARK  111  A    between atoms: _298  and  _301
REMARK  112  A    between atoms: _301  and  _302
REMARK  113  A    between atoms: _304  and  _306
REMARK  114  A    between atoms: _306  and  _307
REMARK  115  A    between atoms: _306  and  _309
REMARK  116  A    between atoms: _309  and  _310
REMARK  117  A    between atoms: _315  and  _317
REMARK  118  A    between atoms: _317  and  _318
REMARK  119  A    between atoms: _317  and  _320
REMARK  120  A    between atoms: _320  and  _321
REMARK  121  A    between atoms: _327  and  _329
REMARK  122  A    between atoms: _329  and  _330
REMARK  123  A    between atoms: _329  and  _332
REMARK  124  A    between atoms: _332  and  _333
REMARK  125  A    between atoms: _333  and  _334
REMARK  126  A    between atoms: _337  and  _339
REMARK  127  A    between atoms: _339  and  _340
REMARK  128  A    between atoms: _339  and  _342
REMARK  129  A    between atoms: _342  and  _343
REMARK  130  A    between atoms: _353  and  _355
REMARK  131  A    between atoms: _355  and  _356
REMARK  132  A    between atoms: _359  and  _361
REMARK  133  A    between atoms: _361  and  _362
REMARK  134  A    between atoms: _361  and  _364
REMARK  135  A    between atoms: _364  and  _365
REMARK  136  A    between atoms: _365  and  _366
REMARK  137  A    between atoms: _369  and  _371
REMARK  138  A    between atoms: _371  and  _372
REMARK  139  A    between atoms: _371  and  _374
REMARK  140  A    between atoms: _374  and  _375
REMARK  141  A    between atoms: _375  and  _376
REMARK  142  A    between atoms: _376  and  _377
REMARK  143  A    between atoms: _377  and  _378
REMARK  144  A    between atoms: _382  and  _384
REMARK  145  A    between atoms: _384  and  _385
REMARK  146  A    between atoms: _384  and  _387
REMARK  147  A    between atoms: _387  and  _388
REMARK                            x       y       z     vdW  Elec       q    Type
REMARK                         _______ _______ _______ _____ _____    ______ ____
ROOT
ATOM      1  O   HOH     1      -5.918   9.970   2.018  0.00  0.00    +0.000 OA
ENDROOT
TORSDOF 0
