REMARK  Name = ../refined-set-2016/1c5t/1c5t_pocket.pdb
REMARK  137 active torsions:
REMARK  status: ('A' for Active; 'I' for Inactive)
REMARK    1  A    between atoms: _1  and  _3
REMARK    2  A    between atoms: _3  and  _4
REMARK    3  A    between atoms: _3  and  _6
REMARK    4  A    between atoms: _9  and  _11
REMARK    5  A    between atoms: _11  and  _12
REMARK    6  A    between atoms: _11  and  _14
REMARK    7  A    between atoms: _14  and  _15
REMARK    8  A    between atoms: _15  and  _39
REMARK    9  A    between atoms: _16  and  _18
REMARK   10  A    between atoms: _18  and  _19
REMARK   11  A    between atoms: _22  and  _24
REMARK   12  A    between atoms: _24  and  _25
REMARK   13  A    between atoms: _24  and  _27
REMARK   14  A    between atoms: _27  and  _28
REMARK   15  A    between atoms: _33  and  _35
REMARK   16  A    between atoms: _35  and  _36
REMARK   17  A    between atoms: _35  and  _38
REMARK   18  A    between atoms: _38  and  _39
REMARK   19  A    between atoms: _40  and  _42
REMARK   20  A    between atoms: _42  and  _43
REMARK   21  A    between atoms: _42  and  _45
REMARK   22  A    between atoms: _45  and  _46
REMARK   23  A    between atoms: _49  and  _51
REMARK   24  A    between atoms: _51  and  _52
REMARK   25  A    between atoms: _51  and  _54
REMARK   26  A    between atoms: _54  and  _55
REMARK   27  A    between atoms: _58  and  _60
REMARK   28  A    between atoms: _60  and  _61
REMARK   29  A    between atoms: _60  and  _63
REMARK   30  A    between atoms: _63  and  _64
REMARK   31  A    between atoms: _67  and  _69
REMARK   32  A    between atoms: _69  and  _70
REMARK   33  A    between atoms: _69  and  _72
REMARK   34  A    between atoms: _72  and  _73
REMARK   35  A    between atoms: _78  and  _79
REMARK   36  A    between atoms: _81  and  _83
REMARK   37  A    between atoms: _83  and  _84
REMARK   38  A    between atoms: _83  and  _86
REMARK   39  A    between atoms: _86  and  _87
REMARK   40  A    between atoms: _90  and  _92
REMARK   41  A    between atoms: _92  and  _93
REMARK   42  A    between atoms: _92  and  _95
REMARK   43  A    between atoms: _95  and  _96
REMARK   44  A    between atoms: _101  and  _102
REMARK   45  A    between atoms: _104  and  _106
REMARK   46  A    between atoms: _106  and  _107
REMARK   47  A    between atoms: _110  and  _112
REMARK   48  A    between atoms: _112  and  _113
REMARK   49  A    between atoms: _112  and  _115
REMARK   50  A    between atoms: _115  and  _116
REMARK   51  A    between atoms: _116  and  _117
REMARK   52  A    between atoms: _117  and  _118
REMARK   53  A    between atoms: _118  and  _119
REMARK   54  A    between atoms: _123  and  _125
REMARK   55  A    between atoms: _125  and  _126
REMARK   56  A    between atoms: _125  and  _128
REMARK   57  A    between atoms: _128  and  _129
REMARK   58  A    between atoms: _132  and  _134
REMARK   59  A    between atoms: _134  and  _135
REMARK   60  A    between atoms: _134  and  _137
REMARK   61  A    between atoms: _137  and  _138
REMARK   62  A    between atoms: _140  and  _142
REMARK   63  A    between atoms: _142  and  _143
REMARK   64  A    between atoms: _142  and  _145
REMARK   65  A    between atoms: _145  and  _146
REMARK   66  A    between atoms: _146  and  _256
REMARK   67  A    between atoms: _147  and  _149
REMARK   68  A    between atoms: _149  and  _150
REMARK   69  A    between atoms: _149  and  _152
REMARK   70  A    between atoms: _152  and  _153
REMARK   71  A    between atoms: _153  and  _154
REMARK   72  A    between atoms: _159  and  _161
REMARK   73  A    between atoms: _161  and  _162
REMARK   74  A    between atoms: _164  and  _166
REMARK   75  A    between atoms: _166  and  _167
REMARK   76  A    between atoms: _166  and  _169
REMARK   77  A    between atoms: _169  and  _170
REMARK   78  A    between atoms: _173  and  _175
REMARK   79  A    between atoms: _175  and  _176
REMARK   80  A    between atoms: _175  and  _178
REMARK   81  A    between atoms: _178  and  _179
REMARK   82  A    between atoms: _181  and  _183
REMARK   83  A    between atoms: _183  and  _184
REMARK   84  A    between atoms: _186  and  _188
REMARK   85  A    between atoms: _188  and  _189
REMARK   86  A    between atoms: _191  and  _193
REMARK   87  A    between atoms: _193  and  _194
REMARK   88  A    between atoms: _193  and  _196
REMARK   89  A    between atoms: _196  and  _197
REMARK   90  A    between atoms: _200  and  _202
REMARK   91  A    between atoms: _202  and  _203
REMARK   92  A    between atoms: _202  and  _205
REMARK   93  A    between atoms: _208  and  _210
REMARK   94  A    between atoms: _210  and  _211
REMARK   95  A    between atoms: _210  and  _213
REMARK   96  A    between atoms: _213  and  _214
REMARK   97  A    between atoms: _216  and  _218
REMARK   98  A    between atoms: _218  and  _219
REMARK   99  A    between atoms: _218  and  _221
REMARK  100  A    between atoms: _221  and  _222
REMARK  101  A    between atoms: _232  and  _234
REMARK  102  A    between atoms: _234  and  _235
REMARK  103  A    between atoms: _237  and  _239
REMARK  104  A    between atoms: _239  and  _240
REMARK  105  A    between atoms: _239  and  _242
REMARK  106  A    between atoms: _242  and  _243
REMARK  107  A    between atoms: _245  and  _247
REMARK  108  A    between atoms: _247  and  _248
REMARK  109  A    between atoms: _250  and  _252
REMARK  110  A    between atoms: _252  and  _253
REMARK  111  A    between atoms: _252  and  _255
REMARK  112  A    between atoms: _255  and  _256
REMARK  113  A    between atoms: _257  and  _259
REMARK  114  A    between atoms: _259  and  _260
REMARK  115  A    between atoms: _263  and  _265
REMARK  116  A    between atoms: _265  and  _266
REMARK  117  A    between atoms: _265  and  _268
REMARK  118  A    between atoms: _268  and  _269
REMARK  119  A    between atoms: _269  and  _270
REMARK  120  A    between atoms: _275  and  _277
REMARK  121  A    between atoms: _277  and  _278
REMARK  122  A    between atoms: _277  and  _280
REMARK  123  A    between atoms: _280  and  _281
REMARK  124  A    between atoms: _281  and  _282
REMARK  125  A    between atoms: _282  and  _283
REMARK  126  A    between atoms: _283  and  _284
REMARK  127  A    between atoms: _289  and  _290
REMARK  128  A    between atoms: _295  and  _297
REMARK  129  A    between atoms: _297  and  _298
REMARK  130  A    between atoms: _300  and  _302
REMARK  131  A    between atoms: _302  and  _303
REMARK  132  A    between atoms: _302  and  _305
REMARK  133  A    between atoms: _308  and  _310
REMARK  134  A    between atoms: _310  and  _311
REMARK  135  A    between atoms: _310  and  _313
REMARK  136  A    between atoms: _313  and  _314
REMARK  137  A    between atoms: _319  and  _320
REMARK                            x       y       z     vdW  Elec       q    Type
REMARK                         _______ _______ _______ _____ _____    ______ ____
ROOT
ATOM      1  CA  VAL A   1      54.240  14.392  52.427  0.00  0.00    +0.133 C 
ENDROOT
BRANCH   1   2
ATOM      2  CB  VAL A   1      53.929  15.376  53.607  0.00  0.00    +0.023 C 
ATOM      3  CG2 VAL A   1      55.133  15.475  54.575  0.00  0.00    +0.002 C 
ATOM      4  CG1 VAL A   1      53.483  16.785  53.125  0.00  0.00    +0.002 C 
ENDBRANCH   1   2
BRANCH   1   5
ATOM      5  N   VAL A   1      53.079  14.382  51.486  0.00  0.00    -0.239 NA
ATOM      6  H   VAL A   1      52.119  14.305  51.880  0.00  0.00    +0.142 HD
ENDBRANCH   1   5
BRANCH   1   7
ATOM      7  C   VAL A   1      54.386  12.941  52.970  0.00  0.00    +0.224 C 
ATOM      8  O   VAL A   1      53.392  12.363  53.369  0.00  0.00    -0.287 OA
ENDBRANCH   1   7
TORSDOF 3
REMARK  Name = ../refined-set-2016/1c5t/1c5t_pocket.pdb
REMARK  137 active torsions:
REMARK  status: ('A' for Active; 'I' for Inactive)
REMARK    1  A    between atoms: _1  and  _3
REMARK    2  A    between atoms: _3  and  _4
REMARK    3  A    between atoms: _3  and  _6
REMARK    4  A    between atoms: _9  and  _11
REMARK    5  A    between atoms: _11  and  _12
REMARK    6  A    between atoms: _11  and  _14
REMARK    7  A    between atoms: _14  and  _15
REMARK    8  A    between atoms: _15  and  _39
REMARK    9  A    between atoms: _16  and  _18
REMARK   10  A    between atoms: _18  and  _19
REMARK   11  A    between atoms: _22  and  _24
REMARK   12  A    between atoms: _24  and  _25
REMARK   13  A    between atoms: _24  and  _27
REMARK   14  A    between atoms: _27  and  _28
REMARK   15  A    between atoms: _33  and  _35
REMARK   16  A    between atoms: _35  and  _36
REMARK   17  A    between atoms: _35  and  _38
REMARK   18  A    between atoms: _38  and  _39
REMARK   19  A    between atoms: _40  and  _42
REMARK   20  A    between atoms: _42  and  _43
REMARK   21  A    between atoms: _42  and  _45
REMARK   22  A    between atoms: _45  and  _46
REMARK   23  A    between atoms: _49  and  _51
REMARK   24  A    between atoms: _51  and  _52
REMARK   25  A    between atoms: _51  and  _54
REMARK   26  A    between atoms: _54  and  _55
REMARK   27  A    between atoms: _58  and  _60
REMARK   28  A    between atoms: _60  and  _61
REMARK   29  A    between atoms: _60  and  _63
REMARK   30  A    between atoms: _63  and  _64
REMARK   31  A    between atoms: _67  and  _69
REMARK   32  A    between atoms: _69  and  _70
REMARK   33  A    between atoms: _69  and  _72
REMARK   34  A    between atoms: _72  and  _73
REMARK   35  A    between atoms: _78  and  _79
REMARK   36  A    between atoms: _81  and  _83
REMARK   37  A    between atoms: _83  and  _84
REMARK   38  A    between atoms: _83  and  _86
REMARK   39  A    between atoms: _86  and  _87
REMARK   40  A    between atoms: _90  and  _92
REMARK   41  A    between atoms: _92  and  _93
REMARK   42  A    between atoms: _92  and  _95
REMARK   43  A    between atoms: _95  and  _96
REMARK   44  A    between atoms: _101  and  _102
REMARK   45  A    between atoms: _104  and  _106
REMARK   46  A    between atoms: _106  and  _107
REMARK   47  A    between atoms: _110  and  _112
REMARK   48  A    between atoms: _112  and  _113
REMARK   49  A    between atoms: _112  and  _115
REMARK   50  A    between atoms: _115  and  _116
REMARK   51  A    between atoms: _116  and  _117
REMARK   52  A    between atoms: _117  and  _118
REMARK   53  A    between atoms: _118  and  _119
REMARK   54  A    between atoms: _123  and  _125
REMARK   55  A    between atoms: _125  and  _126
REMARK   56  A    between atoms: _125  and  _128
REMARK   57  A    between atoms: _128  and  _129
REMARK   58  A    between atoms: _132  and  _134
REMARK   59  A    between atoms: _134  and  _135
REMARK   60  A    between atoms: _134  and  _137
REMARK   61  A    between atoms: _137  and  _138
REMARK   62  A    between atoms: _140  and  _142
REMARK   63  A    between atoms: _142  and  _143
REMARK   64  A    between atoms: _142  and  _145
REMARK   65  A    between atoms: _145  and  _146
REMARK   66  A    between atoms: _146  and  _256
REMARK   67  A    between atoms: _147  and  _149
REMARK   68  A    between atoms: _149  and  _150
REMARK   69  A    between atoms: _149  and  _152
REMARK   70  A    between atoms: _152  and  _153
REMARK   71  A    between atoms: _153  and  _154
REMARK   72  A    between atoms: _159  and  _161
REMARK   73  A    between atoms: _161  and  _162
REMARK   74  A    between atoms: _164  and  _166
REMARK   75  A    between atoms: _166  and  _167
REMARK   76  A    between atoms: _166  and  _169
REMARK   77  A    between atoms: _169  and  _170
REMARK   78  A    between atoms: _173  and  _175
REMARK   79  A    between atoms: _175  and  _176
REMARK   80  A    between atoms: _175  and  _178
REMARK   81  A    between atoms: _178  and  _179
REMARK   82  A    between atoms: _181  and  _183
REMARK   83  A    between atoms: _183  and  _184
REMARK   84  A    between atoms: _186  and  _188
REMARK   85  A    between atoms: _188  and  _189
REMARK   86  A    between atoms: _191  and  _193
REMARK   87  A    between atoms: _193  and  _194
REMARK   88  A    between atoms: _193  and  _196
REMARK   89  A    between atoms: _196  and  _197
REMARK   90  A    between atoms: _200  and  _202
REMARK   91  A    between atoms: _202  and  _203
REMARK   92  A    between atoms: _202  and  _205
REMARK   93  A    between atoms: _208  and  _210
REMARK   94  A    between atoms: _210  and  _211
REMARK   95  A    between atoms: _210  and  _213
REMARK   96  A    between atoms: _213  and  _214
REMARK   97  A    between atoms: _216  and  _218
REMARK   98  A    between atoms: _218  and  _219
REMARK   99  A    between atoms: _218  and  _221
REMARK  100  A    between atoms: _221  and  _222
REMARK  101  A    between atoms: _232  and  _234
REMARK  102  A    between atoms: _234  and  _235
REMARK  103  A    between atoms: _237  and  _239
REMARK  104  A    between atoms: _239  and  _240
REMARK  105  A    between atoms: _239  and  _242
REMARK  106  A    between atoms: _242  and  _243
REMARK  107  A    between atoms: _245  and  _247
REMARK  108  A    between atoms: _247  and  _248
REMARK  109  A    between atoms: _250  and  _252
REMARK  110  A    between atoms: _252  and  _253
REMARK  111  A    between atoms: _252  and  _255
REMARK  112  A    between atoms: _255  and  _256
REMARK  113  A    between atoms: _257  and  _259
REMARK  114  A    between atoms: _259  and  _260
REMARK  115  A    between atoms: _263  and  _265
REMARK  116  A    between atoms: _265  and  _266
REMARK  117  A    between atoms: _265  and  _268
REMARK  118  A    between atoms: _268  and  _269
REMARK  119  A    between atoms: _269  and  _270
REMARK  120  A    between atoms: _275  and  _277
REMARK  121  A    between atoms: _277  and  _278
REMARK  122  A    between atoms: _277  and  _280
REMARK  123  A    between atoms: _280  and  _281
REMARK  124  A    between atoms: _281  and  _282
REMARK  125  A    between atoms: _282  and  _283
REMARK  126  A    between atoms: _283  and  _284
REMARK  127  A    between atoms: _289  and  _290
REMARK  128  A    between atoms: _295  and  _297
REMARK  129  A    between atoms: _297  and  _298
REMARK  130  A    between atoms: _300  and  _302
REMARK  131  A    between atoms: _302  and  _303
REMARK  132  A    between atoms: _302  and  _305
REMARK  133  A    between atoms: _308  and  _310
REMARK  134  A    between atoms: _310  and  _311
REMARK  135  A    between atoms: _310  and  _313
REMARK  136  A    between atoms: _313  and  _314
REMARK  137  A    between atoms: _319  and  _320
REMARK                            x       y       z     vdW  Elec       q    Type
REMARK                         _______ _______ _______ _____ _____    ______ ____
ROOT
ATOM      1  N   CYS A   2      38.510  24.007  43.718  0.00  0.00    -0.297 N 
ATOM      2  C   HIS A   1      38.508  24.958  44.624  0.00  0.00    +0.239 C 
ATOM      3  O   HIS A   1      39.290  25.892  44.615  0.00  0.00    -0.274 OA
ATOM      4  H   CYS A   2      37.827  23.226  43.795  0.00  0.00    +0.150 HD
ENDROOT
BRANCH   1   5
ATOM      5  CA  CYS A   2      39.480  24.027  42.573  0.00  0.00    +0.149 C 
BRANCH   5   6
ATOM      6  C   CYS A   2      38.786  24.735  41.373  0.00  0.00    +0.228 C 
ATOM      7  O   CYS A   2      39.364  24.814  40.308  0.00  0.00    -0.286 OA
ENDBRANCH   5   6
BRANCH   5   8
ATOM      8  CB  CYS A   2      39.826  22.621  42.116  0.00  0.00    +0.096 C 
BRANCH   8   9
ATOM      9  SG  CYS A   2      40.925  21.729  43.203  0.00  0.00    -0.080 S 
BRANCH   9  10
ATOM     10  SG  HIS A   1      42.769  22.377  42.669  0.00  0.00    -0.080 S 
BRANCH  10  11
ATOM     11  CB  HIS A   1      43.157  21.225  41.320  0.00  0.00    +0.094 C 
BRANCH  11  12
ATOM     12  CA  HIS A   1      44.642  20.747  41.215  0.00  0.00    +0.145 C 
BRANCH  12  13
ATOM     13  N   HIS A   1      45.491  21.728  40.449  0.00  0.00    -0.238 NA
ATOM     14  H   HIS A   1      45.724  21.536  39.454  0.00  0.00    +0.142 HD
ENDBRANCH  12  13
BRANCH  12  15
ATOM     15  C   HIS A   1      44.653  19.401  40.519  0.00  0.00    +0.225 C 
ATOM     16  O   HIS A   1      44.978  19.326  39.350  0.00  0.00    -0.287 OA
ENDBRANCH  12  15
ENDBRANCH  11  12
ENDBRANCH  10  11
ENDBRANCH   9  10
ENDBRANCH   8   9
ENDBRANCH   5   8
ENDBRANCH   1   5
BRANCH   2  17
ATOM     17  CA  HIS A   1      37.446  24.851  45.734  0.00  0.00    +0.151 C 
BRANCH  17  18
ATOM     18  N   HIS A   1      36.524  23.707  45.456  0.00  0.00    -0.238 NA
ATOM     19  H   HIS A   1      36.543  22.845  46.038  0.00  0.00    +0.142 HD
ENDBRANCH  17  18
BRANCH  17  20
ATOM     20  CB  HIS A   1      38.139  24.717  47.188  0.00  0.00    +0.074 C 
BRANCH  20  21
ATOM     21  CG  HIS A   1      39.216  23.635  47.366  0.00  0.00    +0.082 A 
ATOM     22  ND1 HIS A   1      39.048  22.416  47.781  0.00  0.00    -0.227 NA
ATOM     23  CE1 HIS A   1      40.210  21.813  47.798  0.00  0.00    +0.199 A 
ATOM     24  NE2 HIS A   1      41.185  22.616  47.395  0.00  0.00    -0.221 NA
ATOM     25  CD2 HIS A   1      40.555  23.742  47.128  0.00  0.00    +0.115 A 
ENDBRANCH  20  21
ENDBRANCH  17  20
ENDBRANCH   2  17
TORSDOF 13
REMARK  Name = ../refined-set-2016/1c5t/1c5t_pocket.pdb
REMARK  137 active torsions:
REMARK  status: ('A' for Active; 'I' for Inactive)
REMARK    1  A    between atoms: _1  and  _3
REMARK    2  A    between atoms: _3  and  _4
REMARK    3  A    between atoms: _3  and  _6
REMARK    4  A    between atoms: _9  and  _11
REMARK    5  A    between atoms: _11  and  _12
REMARK    6  A    between atoms: _11  and  _14
REMARK    7  A    between atoms: _14  and  _15
REMARK    8  A    between atoms: _15  and  _39
REMARK    9  A    between atoms: _16  and  _18
REMARK   10  A    between atoms: _18  and  _19
REMARK   11  A    between atoms: _22  and  _24
REMARK   12  A    between atoms: _24  and  _25
REMARK   13  A    between atoms: _24  and  _27
REMARK   14  A    between atoms: _27  and  _28
REMARK   15  A    between atoms: _33  and  _35
REMARK   16  A    between atoms: _35  and  _36
REMARK   17  A    between atoms: _35  and  _38
REMARK   18  A    between atoms: _38  and  _39
REMARK   19  A    between atoms: _40  and  _42
REMARK   20  A    between atoms: _42  and  _43
REMARK   21  A    between atoms: _42  and  _45
REMARK   22  A    between atoms: _45  and  _46
REMARK   23  A    between atoms: _49  and  _51
REMARK   24  A    between atoms: _51  and  _52
REMARK   25  A    between atoms: _51  and  _54
REMARK   26  A    between atoms: _54  and  _55
REMARK   27  A    between atoms: _58  and  _60
REMARK   28  A    between atoms: _60  and  _61
REMARK   29  A    between atoms: _60  and  _63
REMARK   30  A    between atoms: _63  and  _64
REMARK   31  A    between atoms: _67  and  _69
REMARK   32  A    between atoms: _69  and  _70
REMARK   33  A    between atoms: _69  and  _72
REMARK   34  A    between atoms: _72  and  _73
REMARK   35  A    between atoms: _78  and  _79
REMARK   36  A    between atoms: _81  and  _83
REMARK   37  A    between atoms: _83  and  _84
REMARK   38  A    between atoms: _83  and  _86
REMARK   39  A    between atoms: _86  and  _87
REMARK   40  A    between atoms: _90  and  _92
REMARK   41  A    between atoms: _92  and  _93
REMARK   42  A    between atoms: _92  and  _95
REMARK   43  A    between atoms: _95  and  _96
REMARK   44  A    between atoms: _101  and  _102
REMARK   45  A    between atoms: _104  and  _106
REMARK   46  A    between atoms: _106  and  _107
REMARK   47  A    between atoms: _110  and  _112
REMARK   48  A    between atoms: _112  and  _113
REMARK   49  A    between atoms: _112  and  _115
REMARK   50  A    between atoms: _115  and  _116
REMARK   51  A    between atoms: _116  and  _117
REMARK   52  A    between atoms: _117  and  _118
REMARK   53  A    between atoms: _118  and  _119
REMARK   54  A    between atoms: _123  and  _125
REMARK   55  A    between atoms: _125  and  _126
REMARK   56  A    between atoms: _125  and  _128
REMARK   57  A    between atoms: _128  and  _129
REMARK   58  A    between atoms: _132  and  _134
REMARK   59  A    between atoms: _134  and  _135
REMARK   60  A    between atoms: _134  and  _137
REMARK   61  A    between atoms: _137  and  _138
REMARK   62  A    between atoms: _140  and  _142
REMARK   63  A    between atoms: _142  and  _143
REMARK   64  A    between atoms: _142  and  _145
REMARK   65  A    between atoms: _145  and  _146
REMARK   66  A    between atoms: _146  and  _256
REMARK   67  A    between atoms: _147  and  _149
REMARK   68  A    between atoms: _149  and  _150
REMARK   69  A    between atoms: _149  and  _152
REMARK   70  A    between atoms: _152  and  _153
REMARK   71  A    between atoms: _153  and  _154
REMARK   72  A    between atoms: _159  and  _161
REMARK   73  A    between atoms: _161  and  _162
REMARK   74  A    between atoms: _164  and  _166
REMARK   75  A    between atoms: _166  and  _167
REMARK   76  A    between atoms: _166  and  _169
REMARK   77  A    between atoms: _169  and  _170
REMARK   78  A    between atoms: _173  and  _175
REMARK   79  A    between atoms: _175  and  _176
REMARK   80  A    between atoms: _175  and  _178
REMARK   81  A    between atoms: _178  and  _179
REMARK   82  A    between atoms: _181  and  _183
REMARK   83  A    between atoms: _183  and  _184
REMARK   84  A    between atoms: _186  and  _188
REMARK   85  A    between atoms: _188  and  _189
REMARK   86  A    between atoms: _191  and  _193
REMARK   87  A    between atoms: _193  and  _194
REMARK   88  A    between atoms: _193  and  _196
REMARK   89  A    between atoms: _196  and  _197
REMARK   90  A    between atoms: _200  and  _202
REMARK   91  A    between atoms: _202  and  _203
REMARK   92  A    between atoms: _202  and  _205
REMARK   93  A    between atoms: _208  and  _210
REMARK   94  A    between atoms: _210  and  _211
REMARK   95  A    between atoms: _210  and  _213
REMARK   96  A    between atoms: _213  and  _214
REMARK   97  A    between atoms: _216  and  _218
REMARK   98  A    between atoms: _218  and  _219
REMARK   99  A    between atoms: _218  and  _221
REMARK  100  A    between atoms: _221  and  _222
REMARK  101  A    between atoms: _232  and  _234
REMARK  102  A    between atoms: _234  and  _235
REMARK  103  A    between atoms: _237  and  _239
REMARK  104  A    between atoms: _239  and  _240
REMARK  105  A    between atoms: _239  and  _242
REMARK  106  A    between atoms: _242  and  _243
REMARK  107  A    between atoms: _245  and  _247
REMARK  108  A    between atoms: _247  and  _248
REMARK  109  A    between atoms: _250  and  _252
REMARK  110  A    between atoms: _252  and  _253
REMARK  111  A    between atoms: _252  and  _255
REMARK  112  A    between atoms: _255  and  _256
REMARK  113  A    between atoms: _257  and  _259
REMARK  114  A    between atoms: _259  and  _260
REMARK  115  A    between atoms: _263  and  _265
REMARK  116  A    between atoms: _265  and  _266
REMARK  117  A    between atoms: _265  and  _268
REMARK  118  A    between atoms: _268  and  _269
REMARK  119  A    between atoms: _269  and  _270
REMARK  120  A    between atoms: _275  and  _277
REMARK  121  A    between atoms: _277  and  _278
REMARK  122  A    between atoms: _277  and  _280
REMARK  123  A    between atoms: _280  and  _281
REMARK  124  A    between atoms: _281  and  _282
REMARK  125  A    between atoms: _282  and  _283
REMARK  126  A    between atoms: _283  and  _284
REMARK  127  A    between atoms: _289  and  _290
REMARK  128  A    between atoms: _295  and  _297
REMARK  129  A    between atoms: _297  and  _298
REMARK  130  A    between atoms: _300  and  _302
REMARK  131  A    between atoms: _302  and  _303
REMARK  132  A    between atoms: _302  and  _305
REMARK  133  A    between atoms: _308  and  _310
REMARK  134  A    between atoms: _310  and  _311
REMARK  135  A    between atoms: _310  and  _313
REMARK  136  A    between atoms: _313  and  _314
REMARK  137  A    between atoms: _319  and  _320
REMARK                            x       y       z     vdW  Elec       q    Type
REMARK                         _______ _______ _______ _____ _____    ______ ____
ROOT
ATOM      1  CA  ALA A   1      36.971  19.623  44.431  0.00  0.00    +0.133 C 
ATOM      2  CB  ALA A   1      38.101  19.961  45.418  0.00  0.00    +0.027 C 
ENDROOT
BRANCH   1   3
ATOM      3  N   ALA A   1      37.484  18.847  43.279  0.00  0.00    -0.239 NA
ATOM      4  H   ALA A   1      38.456  19.016  42.951  0.00  0.00    +0.142 HD
ENDBRANCH   1   3
BRANCH   1   5
ATOM      5  C   ALA A   1      36.394  20.958  43.942  0.00  0.00    +0.224 C 
ATOM      6  O   ALA A   1      36.905  21.581  43.037  0.00  0.00    -0.287 OA
ENDBRANCH   1   5
TORSDOF 2
REMARK  Name = ../refined-set-2016/1c5t/1c5t_pocket.pdb
REMARK  137 active torsions:
REMARK  status: ('A' for Active; 'I' for Inactive)
REMARK    1  A    between atoms: _1  and  _3
REMARK    2  A    between atoms: _3  and  _4
REMARK    3  A    between atoms: _3  and  _6
REMARK    4  A    between atoms: _9  and  _11
REMARK    5  A    between atoms: _11  and  _12
REMARK    6  A    between atoms: _11  and  _14
REMARK    7  A    between atoms: _14  and  _15
REMARK    8  A    between atoms: _15  and  _39
REMARK    9  A    between atoms: _16  and  _18
REMARK   10  A    between atoms: _18  and  _19
REMARK   11  A    between atoms: _22  and  _24
REMARK   12  A    between atoms: _24  and  _25
REMARK   13  A    between atoms: _24  and  _27
REMARK   14  A    between atoms: _27  and  _28
REMARK   15  A    between atoms: _33  and  _35
REMARK   16  A    between atoms: _35  and  _36
REMARK   17  A    between atoms: _35  and  _38
REMARK   18  A    between atoms: _38  and  _39
REMARK   19  A    between atoms: _40  and  _42
REMARK   20  A    between atoms: _42  and  _43
REMARK   21  A    between atoms: _42  and  _45
REMARK   22  A    between atoms: _45  and  _46
REMARK   23  A    between atoms: _49  and  _51
REMARK   24  A    between atoms: _51  and  _52
REMARK   25  A    between atoms: _51  and  _54
REMARK   26  A    between atoms: _54  and  _55
REMARK   27  A    between atoms: _58  and  _60
REMARK   28  A    between atoms: _60  and  _61
REMARK   29  A    between atoms: _60  and  _63
REMARK   30  A    between atoms: _63  and  _64
REMARK   31  A    between atoms: _67  and  _69
REMARK   32  A    between atoms: _69  and  _70
REMARK   33  A    between atoms: _69  and  _72
REMARK   34  A    between atoms: _72  and  _73
REMARK   35  A    between atoms: _78  and  _79
REMARK   36  A    between atoms: _81  and  _83
REMARK   37  A    between atoms: _83  and  _84
REMARK   38  A    between atoms: _83  and  _86
REMARK   39  A    between atoms: _86  and  _87
REMARK   40  A    between atoms: _90  and  _92
REMARK   41  A    between atoms: _92  and  _93
REMARK   42  A    between atoms: _92  and  _95
REMARK   43  A    between atoms: _95  and  _96
REMARK   44  A    between atoms: _101  and  _102
REMARK   45  A    between atoms: _104  and  _106
REMARK   46  A    between atoms: _106  and  _107
REMARK   47  A    between atoms: _110  and  _112
REMARK   48  A    between atoms: _112  and  _113
REMARK   49  A    between atoms: _112  and  _115
REMARK   50  A    between atoms: _115  and  _116
REMARK   51  A    between atoms: _116  and  _117
REMARK   52  A    between atoms: _117  and  _118
REMARK   53  A    between atoms: _118  and  _119
REMARK   54  A    between atoms: _123  and  _125
REMARK   55  A    between atoms: _125  and  _126
REMARK   56  A    between atoms: _125  and  _128
REMARK   57  A    between atoms: _128  and  _129
REMARK   58  A    between atoms: _132  and  _134
REMARK   59  A    between atoms: _134  and  _135
REMARK   60  A    between atoms: _134  and  _137
REMARK   61  A    between atoms: _137  and  _138
REMARK   62  A    between atoms: _140  and  _142
REMARK   63  A    between atoms: _142  and  _143
REMARK   64  A    between atoms: _142  and  _145
REMARK   65  A    between atoms: _145  and  _146
REMARK   66  A    between atoms: _146  and  _256
REMARK   67  A    between atoms: _147  and  _149
REMARK   68  A    between atoms: _149  and  _150
REMARK   69  A    between atoms: _149  and  _152
REMARK   70  A    between atoms: _152  and  _153
REMARK   71  A    between atoms: _153  and  _154
REMARK   72  A    between atoms: _159  and  _161
REMARK   73  A    between atoms: _161  and  _162
REMARK   74  A    between atoms: _164  and  _166
REMARK   75  A    between atoms: _166  and  _167
REMARK   76  A    between atoms: _166  and  _169
REMARK   77  A    between atoms: _169  and  _170
REMARK   78  A    between atoms: _173  and  _175
REMARK   79  A    between atoms: _175  and  _176
REMARK   80  A    between atoms: _175  and  _178
REMARK   81  A    between atoms: _178  and  _179
REMARK   82  A    between atoms: _181  and  _183
REMARK   83  A    between atoms: _183  and  _184
REMARK   84  A    between atoms: _186  and  _188
REMARK   85  A    between atoms: _188  and  _189
REMARK   86  A    between atoms: _191  and  _193
REMARK   87  A    between atoms: _193  and  _194
REMARK   88  A    between atoms: _193  and  _196
REMARK   89  A    between atoms: _196  and  _197
REMARK   90  A    between atoms: _200  and  _202
REMARK   91  A    between atoms: _202  and  _203
REMARK   92  A    between atoms: _202  and  _205
REMARK   93  A    between atoms: _208  and  _210
REMARK   94  A    between atoms: _210  and  _211
REMARK   95  A    between atoms: _210  and  _213
REMARK   96  A    between atoms: _213  and  _214
REMARK   97  A    between atoms: _216  and  _218
REMARK   98  A    between atoms: _218  and  _219
REMARK   99  A    between atoms: _218  and  _221
REMARK  100  A    between atoms: _221  and  _222
REMARK  101  A    between atoms: _232  and  _234
REMARK  102  A    between atoms: _234  and  _235
REMARK  103  A    between atoms: _237  and  _239
REMARK  104  A    between atoms: _239  and  _240
REMARK  105  A    between atoms: _239  and  _242
REMARK  106  A    between atoms: _242  and  _243
REMARK  107  A    between atoms: _245  and  _247
REMARK  108  A    between atoms: _247  and  _248
REMARK  109  A    between atoms: _250  and  _252
REMARK  110  A    between atoms: _252  and  _253
REMARK  111  A    between atoms: _252  and  _255
REMARK  112  A    between atoms: _255  and  _256
REMARK  113  A    between atoms: _257  and  _259
REMARK  114  A    between atoms: _259  and  _260
REMARK  115  A    between atoms: _263  and  _265
REMARK  116  A    between atoms: _265  and  _266
REMARK  117  A    between atoms: _265  and  _268
REMARK  118  A    between atoms: _268  and  _269
REMARK  119  A    between atoms: _269  and  _270
REMARK  120  A    between atoms: _275  and  _277
REMARK  121  A    between atoms: _277  and  _278
REMARK  122  A    between atoms: _277  and  _280
REMARK  123  A    between atoms: _280  and  _281
REMARK  124  A    between atoms: _281  and  _282
REMARK  125  A    between atoms: _282  and  _283
REMARK  126  A    between atoms: _283  and  _284
REMARK  127  A    between atoms: _289  and  _290
REMARK  128  A    between atoms: _295  and  _297
REMARK  129  A    between atoms: _297  and  _298
REMARK  130  A    between atoms: _300  and  _302
REMARK  131  A    between atoms: _302  and  _303
REMARK  132  A    between atoms: _302  and  _305
REMARK  133  A    between atoms: _308  and  _310
REMARK  134  A    between atoms: _310  and  _311
REMARK  135  A    between atoms: _310  and  _313
REMARK  136  A    between atoms: _313  and  _314
REMARK  137  A    between atoms: _319  and  _320
REMARK                            x       y       z     vdW  Elec       q    Type
REMARK                         _______ _______ _______ _____ _____    ______ ____
ROOT
ATOM      1  CA  LEU A   1      34.039  23.565  52.628  0.00  0.00    +0.133 C 
ENDROOT
BRANCH   1   2
ATOM      2  N   LEU A   1      33.609  24.554  53.645  0.00  0.00    -0.239 NA
ATOM      3  H   LEU A   1      33.225  25.455  53.296  0.00  0.00    +0.142 HD
ENDBRANCH   1   2
BRANCH   1   4
ATOM      4  C   LEU A   1      33.104  22.365  52.613  0.00  0.00    +0.224 C 
ATOM      5  O   LEU A   1      33.450  21.277  52.171  0.00  0.00    -0.287 OA
ENDBRANCH   1   4
BRANCH   1   6
ATOM      6  CB  LEU A   1      35.534  23.066  52.857  0.00  0.00    +0.025 C 
BRANCH   6   7
ATOM      7  CG  LEU A   1      36.579  24.136  52.383  0.00  0.00    +0.002 C 
ATOM      8  CD2 LEU A   1      37.878  23.429  51.931  0.00  0.00    +0.000 C 
ATOM      9  CD1 LEU A   1      36.105  24.946  51.172  0.00  0.00    +0.000 C 
ENDBRANCH   6   7
ENDBRANCH   1   6
TORSDOF 4
REMARK  Name = ../refined-set-2016/1c5t/1c5t_pocket.pdb
REMARK  137 active torsions:
REMARK  status: ('A' for Active; 'I' for Inactive)
REMARK    1  A    between atoms: _1  and  _3
REMARK    2  A    between atoms: _3  and  _4
REMARK    3  A    between atoms: _3  and  _6
REMARK    4  A    between atoms: _9  and  _11
REMARK    5  A    between atoms: _11  and  _12
REMARK    6  A    between atoms: _11  and  _14
REMARK    7  A    between atoms: _14  and  _15
REMARK    8  A    between atoms: _15  and  _39
REMARK    9  A    between atoms: _16  and  _18
REMARK   10  A    between atoms: _18  and  _19
REMARK   11  A    between atoms: _22  and  _24
REMARK   12  A    between atoms: _24  and  _25
REMARK   13  A    between atoms: _24  and  _27
REMARK   14  A    between atoms: _27  and  _28
REMARK   15  A    between atoms: _33  and  _35
REMARK   16  A    between atoms: _35  and  _36
REMARK   17  A    between atoms: _35  and  _38
REMARK   18  A    between atoms: _38  and  _39
REMARK   19  A    between atoms: _40  and  _42
REMARK   20  A    between atoms: _42  and  _43
REMARK   21  A    between atoms: _42  and  _45
REMARK   22  A    between atoms: _45  and  _46
REMARK   23  A    between atoms: _49  and  _51
REMARK   24  A    between atoms: _51  and  _52
REMARK   25  A    between atoms: _51  and  _54
REMARK   26  A    between atoms: _54  and  _55
REMARK   27  A    between atoms: _58  and  _60
REMARK   28  A    between atoms: _60  and  _61
REMARK   29  A    between atoms: _60  and  _63
REMARK   30  A    between atoms: _63  and  _64
REMARK   31  A    between atoms: _67  and  _69
REMARK   32  A    between atoms: _69  and  _70
REMARK   33  A    between atoms: _69  and  _72
REMARK   34  A    between atoms: _72  and  _73
REMARK   35  A    between atoms: _78  and  _79
REMARK   36  A    between atoms: _81  and  _83
REMARK   37  A    between atoms: _83  and  _84
REMARK   38  A    between atoms: _83  and  _86
REMARK   39  A    between atoms: _86  and  _87
REMARK   40  A    between atoms: _90  and  _92
REMARK   41  A    between atoms: _92  and  _93
REMARK   42  A    between atoms: _92  and  _95
REMARK   43  A    between atoms: _95  and  _96
REMARK   44  A    between atoms: _101  and  _102
REMARK   45  A    between atoms: _104  and  _106
REMARK   46  A    between atoms: _106  and  _107
REMARK   47  A    between atoms: _110  and  _112
REMARK   48  A    between atoms: _112  and  _113
REMARK   49  A    between atoms: _112  and  _115
REMARK   50  A    between atoms: _115  and  _116
REMARK   51  A    between atoms: _116  and  _117
REMARK   52  A    between atoms: _117  and  _118
REMARK   53  A    between atoms: _118  and  _119
REMARK   54  A    between atoms: _123  and  _125
REMARK   55  A    between atoms: _125  and  _126
REMARK   56  A    between atoms: _125  and  _128
REMARK   57  A    between atoms: _128  and  _129
REMARK   58  A    between atoms: _132  and  _134
REMARK   59  A    between atoms: _134  and  _135
REMARK   60  A    between atoms: _134  and  _137
REMARK   61  A    between atoms: _137  and  _138
REMARK   62  A    between atoms: _140  and  _142
REMARK   63  A    between atoms: _142  and  _143
REMARK   64  A    between atoms: _142  and  _145
REMARK   65  A    between atoms: _145  and  _146
REMARK   66  A    between atoms: _146  and  _256
REMARK   67  A    between atoms: _147  and  _149
REMARK   68  A    between atoms: _149  and  _150
REMARK   69  A    between atoms: _149  and  _152
REMARK   70  A    between atoms: _152  and  _153
REMARK   71  A    between atoms: _153  and  _154
REMARK   72  A    between atoms: _159  and  _161
REMARK   73  A    between atoms: _161  and  _162
REMARK   74  A    between atoms: _164  and  _166
REMARK   75  A    between atoms: _166  and  _167
REMARK   76  A    between atoms: _166  and  _169
REMARK   77  A    between atoms: _169  and  _170
REMARK   78  A    between atoms: _173  and  _175
REMARK   79  A    between atoms: _175  and  _176
REMARK   80  A    between atoms: _175  and  _178
REMARK   81  A    between atoms: _178  and  _179
REMARK   82  A    between atoms: _181  and  _183
REMARK   83  A    between atoms: _183  and  _184
REMARK   84  A    between atoms: _186  and  _188
REMARK   85  A    between atoms: _188  and  _189
REMARK   86  A    between atoms: _191  and  _193
REMARK   87  A    between atoms: _193  and  _194
REMARK   88  A    between atoms: _193  and  _196
REMARK   89  A    between atoms: _196  and  _197
REMARK   90  A    between atoms: _200  and  _202
REMARK   91  A    between atoms: _202  and  _203
REMARK   92  A    between atoms: _202  and  _205
REMARK   93  A    between atoms: _208  and  _210
REMARK   94  A    between atoms: _210  and  _211
REMARK   95  A    between atoms: _210  and  _213
REMARK   96  A    between atoms: _213  and  _214
REMARK   97  A    between atoms: _216  and  _218
REMARK   98  A    between atoms: _218  and  _219
REMARK   99  A    between atoms: _218  and  _221
REMARK  100  A    between atoms: _221  and  _222
REMARK  101  A    between atoms: _232  and  _234
REMARK  102  A    between atoms: _234  and  _235
REMARK  103  A    between atoms: _237  and  _239
REMARK  104  A    between atoms: _239  and  _240
REMARK  105  A    between atoms: _239  and  _242
REMARK  106  A    between atoms: _242  and  _243
REMARK  107  A    between atoms: _245  and  _247
REMARK  108  A    between atoms: _247  and  _248
REMARK  109  A    between atoms: _250  and  _252
REMARK  110  A    between atoms: _252  and  _253
REMARK  111  A    between atoms: _252  and  _255
REMARK  112  A    between atoms: _255  and  _256
REMARK  113  A    between atoms: _257  and  _259
REMARK  114  A    between atoms: _259  and  _260
REMARK  115  A    between atoms: _263  and  _265
REMARK  116  A    between atoms: _265  and  _266
REMARK  117  A    between atoms: _265  and  _268
REMARK  118  A    between atoms: _268  and  _269
REMARK  119  A    between atoms: _269  and  _270
REMARK  120  A    between atoms: _275  and  _277
REMARK  121  A    between atoms: _277  and  _278
REMARK  122  A    between atoms: _277  and  _280
REMARK  123  A    between atoms: _280  and  _281
REMARK  124  A    between atoms: _281  and  _282
REMARK  125  A    between atoms: _282  and  _283
REMARK  126  A    between atoms: _283  and  _284
REMARK  127  A    between atoms: _289  and  _290
REMARK  128  A    between atoms: _295  and  _297
REMARK  129  A    between atoms: _297  and  _298
REMARK  130  A    between atoms: _300  and  _302
REMARK  131  A    between atoms: _302  and  _303
REMARK  132  A    between atoms: _302  and  _305
REMARK  133  A    between atoms: _308  and  _310
REMARK  134  A    between atoms: _310  and  _311
REMARK  135  A    between atoms: _310  and  _313
REMARK  136  A    between atoms: _313  and  _314
REMARK  137  A    between atoms: _319  and  _320
REMARK                            x       y       z     vdW  Elec       q    Type
REMARK                         _______ _______ _______ _____ _____    ______ ____
ROOT
ATOM      1  CA  ASP A   1      33.362  20.313  48.240  0.00  0.00    +0.144 C 
ENDROOT
BRANCH   1   2
ATOM      2  N   ASP A   1      32.207  19.900  49.109  0.00  0.00    -0.239 NA
ATOM      3  H   ASP A   1      32.384  19.385  49.995  0.00  0.00    +0.142 HD
ENDBRANCH   1   2
BRANCH   1   4
ATOM      4  C   ASP A   1      33.617  19.323  47.122  0.00  0.00    +0.225 C 
ATOM      5  O   ASP A   1      34.532  18.517  47.184  0.00  0.00    -0.287 OA
ENDBRANCH   1   4
BRANCH   1   6
ATOM      6  CB  ASP A   1      34.632  20.475  49.143  0.00  0.00    +0.139 C 
BRANCH   6   7
ATOM      7  CG  ASP A   1      35.847  21.092  48.382  0.00  0.00    +0.367 C 
ATOM      8  OD2 ASP A   1      36.927  20.926  48.929  0.00  0.00    -0.246 OA
ATOM      9  OD1 ASP A   1      35.636  21.677  47.330  0.00  0.00    -0.246 OA
ENDBRANCH   6   7
ENDBRANCH   1   6
TORSDOF 4
REMARK  Name = ../refined-set-2016/1c5t/1c5t_pocket.pdb
REMARK  137 active torsions:
REMARK  status: ('A' for Active; 'I' for Inactive)
REMARK    1  A    between atoms: _1  and  _3
REMARK    2  A    between atoms: _3  and  _4
REMARK    3  A    between atoms: _3  and  _6
REMARK    4  A    between atoms: _9  and  _11
REMARK    5  A    between atoms: _11  and  _12
REMARK    6  A    between atoms: _11  and  _14
REMARK    7  A    between atoms: _14  and  _15
REMARK    8  A    between atoms: _15  and  _39
REMARK    9  A    between atoms: _16  and  _18
REMARK   10  A    between atoms: _18  and  _19
REMARK   11  A    between atoms: _22  and  _24
REMARK   12  A    between atoms: _24  and  _25
REMARK   13  A    between atoms: _24  and  _27
REMARK   14  A    between atoms: _27  and  _28
REMARK   15  A    between atoms: _33  and  _35
REMARK   16  A    between atoms: _35  and  _36
REMARK   17  A    between atoms: _35  and  _38
REMARK   18  A    between atoms: _38  and  _39
REMARK   19  A    between atoms: _40  and  _42
REMARK   20  A    between atoms: _42  and  _43
REMARK   21  A    between atoms: _42  and  _45
REMARK   22  A    between atoms: _45  and  _46
REMARK   23  A    between atoms: _49  and  _51
REMARK   24  A    between atoms: _51  and  _52
REMARK   25  A    between atoms: _51  and  _54
REMARK   26  A    between atoms: _54  and  _55
REMARK   27  A    between atoms: _58  and  _60
REMARK   28  A    between atoms: _60  and  _61
REMARK   29  A    between atoms: _60  and  _63
REMARK   30  A    between atoms: _63  and  _64
REMARK   31  A    between atoms: _67  and  _69
REMARK   32  A    between atoms: _69  and  _70
REMARK   33  A    between atoms: _69  and  _72
REMARK   34  A    between atoms: _72  and  _73
REMARK   35  A    between atoms: _78  and  _79
REMARK   36  A    between atoms: _81  and  _83
REMARK   37  A    between atoms: _83  and  _84
REMARK   38  A    between atoms: _83  and  _86
REMARK   39  A    between atoms: _86  and  _87
REMARK   40  A    between atoms: _90  and  _92
REMARK   41  A    between atoms: _92  and  _93
REMARK   42  A    between atoms: _92  and  _95
REMARK   43  A    between atoms: _95  and  _96
REMARK   44  A    between atoms: _101  and  _102
REMARK   45  A    between atoms: _104  and  _106
REMARK   46  A    between atoms: _106  and  _107
REMARK   47  A    between atoms: _110  and  _112
REMARK   48  A    between atoms: _112  and  _113
REMARK   49  A    between atoms: _112  and  _115
REMARK   50  A    between atoms: _115  and  _116
REMARK   51  A    between atoms: _116  and  _117
REMARK   52  A    between atoms: _117  and  _118
REMARK   53  A    between atoms: _118  and  _119
REMARK   54  A    between atoms: _123  and  _125
REMARK   55  A    between atoms: _125  and  _126
REMARK   56  A    between atoms: _125  and  _128
REMARK   57  A    between atoms: _128  and  _129
REMARK   58  A    between atoms: _132  and  _134
REMARK   59  A    between atoms: _134  and  _135
REMARK   60  A    between atoms: _134  and  _137
REMARK   61  A    between atoms: _137  and  _138
REMARK   62  A    between atoms: _140  and  _142
REMARK   63  A    between atoms: _142  and  _143
REMARK   64  A    between atoms: _142  and  _145
REMARK   65  A    between atoms: _145  and  _146
REMARK   66  A    between atoms: _146  and  _256
REMARK   67  A    between atoms: _147  and  _149
REMARK   68  A    between atoms: _149  and  _150
REMARK   69  A    between atoms: _149  and  _152
REMARK   70  A    between atoms: _152  and  _153
REMARK   71  A    between atoms: _153  and  _154
REMARK   72  A    between atoms: _159  and  _161
REMARK   73  A    between atoms: _161  and  _162
REMARK   74  A    between atoms: _164  and  _166
REMARK   75  A    between atoms: _166  and  _167
REMARK   76  A    between atoms: _166  and  _169
REMARK   77  A    between atoms: _169  and  _170
REMARK   78  A    between atoms: _173  and  _175
REMARK   79  A    between atoms: _175  and  _176
REMARK   80  A    between atoms: _175  and  _178
REMARK   81  A    between atoms: _178  and  _179
REMARK   82  A    between atoms: _181  and  _183
REMARK   83  A    between atoms: _183  and  _184
REMARK   84  A    between atoms: _186  and  _188
REMARK   85  A    between atoms: _188  and  _189
REMARK   86  A    between atoms: _191  and  _193
REMARK   87  A    between atoms: _193  and  _194
REMARK   88  A    between atoms: _193  and  _196
REMARK   89  A    between atoms: _196  and  _197
REMARK   90  A    between atoms: _200  and  _202
REMARK   91  A    between atoms: _202  and  _203
REMARK   92  A    between atoms: _202  and  _205
REMARK   93  A    between atoms: _208  and  _210
REMARK   94  A    between atoms: _210  and  _211
REMARK   95  A    between atoms: _210  and  _213
REMARK   96  A    between atoms: _213  and  _214
REMARK   97  A    between atoms: _216  and  _218
REMARK   98  A    between atoms: _218  and  _219
REMARK   99  A    between atoms: _218  and  _221
REMARK  100  A    between atoms: _221  and  _222
REMARK  101  A    between atoms: _232  and  _234
REMARK  102  A    between atoms: _234  and  _235
REMARK  103  A    between atoms: _237  and  _239
REMARK  104  A    between atoms: _239  and  _240
REMARK  105  A    between atoms: _239  and  _242
REMARK  106  A    between atoms: _242  and  _243
REMARK  107  A    between atoms: _245  and  _247
REMARK  108  A    between atoms: _247  and  _248
REMARK  109  A    between atoms: _250  and  _252
REMARK  110  A    between atoms: _252  and  _253
REMARK  111  A    between atoms: _252  and  _255
REMARK  112  A    between atoms: _255  and  _256
REMARK  113  A    between atoms: _257  and  _259
REMARK  114  A    between atoms: _259  and  _260
REMARK  115  A    between atoms: _263  and  _265
REMARK  116  A    between atoms: _265  and  _266
REMARK  117  A    between atoms: _265  and  _268
REMARK  118  A    between atoms: _268  and  _269
REMARK  119  A    between atoms: _269  and  _270
REMARK  120  A    between atoms: _275  and  _277
REMARK  121  A    between atoms: _277  and  _278
REMARK  122  A    between atoms: _277  and  _280
REMARK  123  A    between atoms: _280  and  _281
REMARK  124  A    between atoms: _281  and  _282
REMARK  125  A    between atoms: _282  and  _283
REMARK  126  A    between atoms: _283  and  _284
REMARK  127  A    between atoms: _289  and  _290
REMARK  128  A    between atoms: _295  and  _297
REMARK  129  A    between atoms: _297  and  _298
REMARK  130  A    between atoms: _300  and  _302
REMARK  131  A    between atoms: _302  and  _303
REMARK  132  A    between atoms: _302  and  _305
REMARK  133  A    between atoms: _308  and  _310
REMARK  134  A    between atoms: _310  and  _311
REMARK  135  A    between atoms: _310  and  _313
REMARK  136  A    between atoms: _313  and  _314
REMARK  137  A    between atoms: _319  and  _320
REMARK                            x       y       z     vdW  Elec       q    Type
REMARK                         _______ _______ _______ _____ _____    ______ ____
ROOT
ATOM      1  CA  ILE A   1      45.864   9.081  47.805  0.00  0.00    +0.133 C 
ENDROOT
BRANCH   1   2
ATOM      2  N   ILE A   1      46.035   7.616  48.053  0.00  0.00    -0.239 NA
ATOM      3  H   ILE A   1      46.888   7.297  48.555  0.00  0.00    +0.142 HD
ENDBRANCH   1   2
BRANCH   1   4
ATOM      4  CB  ILE A   1      45.919   9.817  49.192  0.00  0.00    +0.023 C 
ATOM      5  CG2 ILE A   1      45.640  11.350  49.010  0.00  0.00    +0.002 C 
BRANCH   4   6
ATOM      6  CG1 ILE A   1      44.873   9.134  50.140  0.00  0.00    +0.002 C 
ATOM      7  CD1 ILE A   1      45.038   9.650  51.548  0.00  0.00    +0.000 C 
ENDBRANCH   4   6
ENDBRANCH   1   4
BRANCH   1   8
ATOM      8  C   ILE A   1      47.070   9.448  46.899  0.00  0.00    +0.224 C 
ATOM      9  O   ILE A   1      48.182   9.009  47.161  0.00  0.00    -0.287 OA
ENDBRANCH   1   8
TORSDOF 4
REMARK  Name = ../refined-set-2016/1c5t/1c5t_pocket.pdb
REMARK  137 active torsions:
REMARK  status: ('A' for Active; 'I' for Inactive)
REMARK    1  A    between atoms: _1  and  _3
REMARK    2  A    between atoms: _3  and  _4
REMARK    3  A    between atoms: _3  and  _6
REMARK    4  A    between atoms: _9  and  _11
REMARK    5  A    between atoms: _11  and  _12
REMARK    6  A    between atoms: _11  and  _14
REMARK    7  A    between atoms: _14  and  _15
REMARK    8  A    between atoms: _15  and  _39
REMARK    9  A    between atoms: _16  and  _18
REMARK   10  A    between atoms: _18  and  _19
REMARK   11  A    between atoms: _22  and  _24
REMARK   12  A    between atoms: _24  and  _25
REMARK   13  A    between atoms: _24  and  _27
REMARK   14  A    between atoms: _27  and  _28
REMARK   15  A    between atoms: _33  and  _35
REMARK   16  A    between atoms: _35  and  _36
REMARK   17  A    between atoms: _35  and  _38
REMARK   18  A    between atoms: _38  and  _39
REMARK   19  A    between atoms: _40  and  _42
REMARK   20  A    between atoms: _42  and  _43
REMARK   21  A    between atoms: _42  and  _45
REMARK   22  A    between atoms: _45  and  _46
REMARK   23  A    between atoms: _49  and  _51
REMARK   24  A    between atoms: _51  and  _52
REMARK   25  A    between atoms: _51  and  _54
REMARK   26  A    between atoms: _54  and  _55
REMARK   27  A    between atoms: _58  and  _60
REMARK   28  A    between atoms: _60  and  _61
REMARK   29  A    between atoms: _60  and  _63
REMARK   30  A    between atoms: _63  and  _64
REMARK   31  A    between atoms: _67  and  _69
REMARK   32  A    between atoms: _69  and  _70
REMARK   33  A    between atoms: _69  and  _72
REMARK   34  A    between atoms: _72  and  _73
REMARK   35  A    between atoms: _78  and  _79
REMARK   36  A    between atoms: _81  and  _83
REMARK   37  A    between atoms: _83  and  _84
REMARK   38  A    between atoms: _83  and  _86
REMARK   39  A    between atoms: _86  and  _87
REMARK   40  A    between atoms: _90  and  _92
REMARK   41  A    between atoms: _92  and  _93
REMARK   42  A    between atoms: _92  and  _95
REMARK   43  A    between atoms: _95  and  _96
REMARK   44  A    between atoms: _101  and  _102
REMARK   45  A    between atoms: _104  and  _106
REMARK   46  A    between atoms: _106  and  _107
REMARK   47  A    between atoms: _110  and  _112
REMARK   48  A    between atoms: _112  and  _113
REMARK   49  A    between atoms: _112  and  _115
REMARK   50  A    between atoms: _115  and  _116
REMARK   51  A    between atoms: _116  and  _117
REMARK   52  A    between atoms: _117  and  _118
REMARK   53  A    between atoms: _118  and  _119
REMARK   54  A    between atoms: _123  and  _125
REMARK   55  A    between atoms: _125  and  _126
REMARK   56  A    between atoms: _125  and  _128
REMARK   57  A    between atoms: _128  and  _129
REMARK   58  A    between atoms: _132  and  _134
REMARK   59  A    between atoms: _134  and  _135
REMARK   60  A    between atoms: _134  and  _137
REMARK   61  A    between atoms: _137  and  _138
REMARK   62  A    between atoms: _140  and  _142
REMARK   63  A    between atoms: _142  and  _143
REMARK   64  A    between atoms: _142  and  _145
REMARK   65  A    between atoms: _145  and  _146
REMARK   66  A    between atoms: _146  and  _256
REMARK   67  A    between atoms: _147  and  _149
REMARK   68  A    between atoms: _149  and  _150
REMARK   69  A    between atoms: _149  and  _152
REMARK   70  A    between atoms: _152  and  _153
REMARK   71  A    between atoms: _153  and  _154
REMARK   72  A    between atoms: _159  and  _161
REMARK   73  A    between atoms: _161  and  _162
REMARK   74  A    between atoms: _164  and  _166
REMARK   75  A    between atoms: _166  and  _167
REMARK   76  A    between atoms: _166  and  _169
REMARK   77  A    between atoms: _169  and  _170
REMARK   78  A    between atoms: _173  and  _175
REMARK   79  A    between atoms: _175  and  _176
REMARK   80  A    between atoms: _175  and  _178
REMARK   81  A    between atoms: _178  and  _179
REMARK   82  A    between atoms: _181  and  _183
REMARK   83  A    between atoms: _183  and  _184
REMARK   84  A    between atoms: _186  and  _188
REMARK   85  A    between atoms: _188  and  _189
REMARK   86  A    between atoms: _191  and  _193
REMARK   87  A    between atoms: _193  and  _194
REMARK   88  A    between atoms: _193  and  _196
REMARK   89  A    between atoms: _196  and  _197
REMARK   90  A    between atoms: _200  and  _202
REMARK   91  A    between atoms: _202  and  _203
REMARK   92  A    between atoms: _202  and  _205
REMARK   93  A    between atoms: _208  and  _210
REMARK   94  A    between atoms: _210  and  _211
REMARK   95  A    between atoms: _210  and  _213
REMARK   96  A    between atoms: _213  and  _214
REMARK   97  A    between atoms: _216  and  _218
REMARK   98  A    between atoms: _218  and  _219
REMARK   99  A    between atoms: _218  and  _221
REMARK  100  A    between atoms: _221  and  _222
REMARK  101  A    between atoms: _232  and  _234
REMARK  102  A    between atoms: _234  and  _235
REMARK  103  A    between atoms: _237  and  _239
REMARK  104  A    between atoms: _239  and  _240
REMARK  105  A    between atoms: _239  and  _242
REMARK  106  A    between atoms: _242  and  _243
REMARK  107  A    between atoms: _245  and  _247
REMARK  108  A    between atoms: _247  and  _248
REMARK  109  A    between atoms: _250  and  _252
REMARK  110  A    between atoms: _252  and  _253
REMARK  111  A    between atoms: _252  and  _255
REMARK  112  A    between atoms: _255  and  _256
REMARK  113  A    between atoms: _257  and  _259
REMARK  114  A    between atoms: _259  and  _260
REMARK  115  A    between atoms: _263  and  _265
REMARK  116  A    between atoms: _265  and  _266
REMARK  117  A    between atoms: _265  and  _268
REMARK  118  A    between atoms: _268  and  _269
REMARK  119  A    between atoms: _269  and  _270
REMARK  120  A    between atoms: _275  and  _277
REMARK  121  A    between atoms: _277  and  _278
REMARK  122  A    between atoms: _277  and  _280
REMARK  123  A    between atoms: _280  and  _281
REMARK  124  A    between atoms: _281  and  _282
REMARK  125  A    between atoms: _282  and  _283
REMARK  126  A    between atoms: _283  and  _284
REMARK  127  A    between atoms: _289  and  _290
REMARK  128  A    between atoms: _295  and  _297
REMARK  129  A    between atoms: _297  and  _298
REMARK  130  A    between atoms: _300  and  _302
REMARK  131  A    between atoms: _302  and  _303
REMARK  132  A    between atoms: _302  and  _305
REMARK  133  A    between atoms: _308  and  _310
REMARK  134  A    between atoms: _310  and  _311
REMARK  135  A    between atoms: _310  and  _313
REMARK  136  A    between atoms: _313  and  _314
REMARK  137  A    between atoms: _319  and  _320
REMARK                            x       y       z     vdW  Elec       q    Type
REMARK                         _______ _______ _______ _____ _____    ______ ____
ROOT
ATOM      1  CG  TYR A   1      55.064  22.381  44.603  0.00  0.00    -0.020 A 
ATOM      2  CD2 TYR A   1      55.447  23.388  45.432  0.00  0.00    -0.001 A 
ATOM      3  CE2 TYR A   1      54.513  23.971  46.244  0.00  0.00    +0.036 A 
ATOM      4  CZ  TYR A   1      53.201  23.553  46.241  0.00  0.00    +0.134 A 
ATOM      5  CE1 TYR A   1      52.816  22.538  45.397  0.00  0.00    +0.036 A 
ATOM      6  CD1 TYR A   1      53.748  21.954  44.581  0.00  0.00    -0.001 A 
ENDROOT
BRANCH   4   7
ATOM      7  OH  TYR A   1      52.300  24.142  47.112  0.00  0.00    -0.506 OA
ATOM      8  HH  TYR A   1      51.407  23.734  46.987  0.00  0.00    +0.292 HD
ENDBRANCH   4   7
BRANCH   1   9
ATOM      9  CB  TYR A   1      56.097  21.715  43.724  0.00  0.00    +0.051 C 
BRANCH   9  10
ATOM     10  CA  TYR A   1      56.740  20.613  44.558  0.00  0.00    +0.137 C 
BRANCH  10  11
ATOM     11  N   TYR A   1      57.800  21.171  45.419  0.00  0.00    -0.239 NA
ATOM     12  H   TYR A   1      58.433  21.906  45.043  0.00  0.00    +0.142 HD
ENDBRANCH  10  11
BRANCH  10  13
ATOM     13  C   TYR A   1      57.393  19.619  43.631  0.00  0.00    +0.224 C 
ATOM     14  O   TYR A   1      58.369  19.956  42.988  0.00  0.00    -0.287 OA
ENDBRANCH  10  13
ENDBRANCH   9  10
ENDBRANCH   1   9
TORSDOF 5
REMARK  Name = ../refined-set-2016/1c5t/1c5t_pocket.pdb
REMARK  137 active torsions:
REMARK  status: ('A' for Active; 'I' for Inactive)
REMARK    1  A    between atoms: _1  and  _3
REMARK    2  A    between atoms: _3  and  _4
REMARK    3  A    between atoms: _3  and  _6
REMARK    4  A    between atoms: _9  and  _11
REMARK    5  A    between atoms: _11  and  _12
REMARK    6  A    between atoms: _11  and  _14
REMARK    7  A    between atoms: _14  and  _15
REMARK    8  A    between atoms: _15  and  _39
REMARK    9  A    between atoms: _16  and  _18
REMARK   10  A    between atoms: _18  and  _19
REMARK   11  A    between atoms: _22  and  _24
REMARK   12  A    between atoms: _24  and  _25
REMARK   13  A    between atoms: _24  and  _27
REMARK   14  A    between atoms: _27  and  _28
REMARK   15  A    between atoms: _33  and  _35
REMARK   16  A    between atoms: _35  and  _36
REMARK   17  A    between atoms: _35  and  _38
REMARK   18  A    between atoms: _38  and  _39
REMARK   19  A    between atoms: _40  and  _42
REMARK   20  A    between atoms: _42  and  _43
REMARK   21  A    between atoms: _42  and  _45
REMARK   22  A    between atoms: _45  and  _46
REMARK   23  A    between atoms: _49  and  _51
REMARK   24  A    between atoms: _51  and  _52
REMARK   25  A    between atoms: _51  and  _54
REMARK   26  A    between atoms: _54  and  _55
REMARK   27  A    between atoms: _58  and  _60
REMARK   28  A    between atoms: _60  and  _61
REMARK   29  A    between atoms: _60  and  _63
REMARK   30  A    between atoms: _63  and  _64
REMARK   31  A    between atoms: _67  and  _69
REMARK   32  A    between atoms: _69  and  _70
REMARK   33  A    between atoms: _69  and  _72
REMARK   34  A    between atoms: _72  and  _73
REMARK   35  A    between atoms: _78  and  _79
REMARK   36  A    between atoms: _81  and  _83
REMARK   37  A    between atoms: _83  and  _84
REMARK   38  A    between atoms: _83  and  _86
REMARK   39  A    between atoms: _86  and  _87
REMARK   40  A    between atoms: _90  and  _92
REMARK   41  A    between atoms: _92  and  _93
REMARK   42  A    between atoms: _92  and  _95
REMARK   43  A    between atoms: _95  and  _96
REMARK   44  A    between atoms: _101  and  _102
REMARK   45  A    between atoms: _104  and  _106
REMARK   46  A    between atoms: _106  and  _107
REMARK   47  A    between atoms: _110  and  _112
REMARK   48  A    between atoms: _112  and  _113
REMARK   49  A    between atoms: _112  and  _115
REMARK   50  A    between atoms: _115  and  _116
REMARK   51  A    between atoms: _116  and  _117
REMARK   52  A    between atoms: _117  and  _118
REMARK   53  A    between atoms: _118  and  _119
REMARK   54  A    between atoms: _123  and  _125
REMARK   55  A    between atoms: _125  and  _126
REMARK   56  A    between atoms: _125  and  _128
REMARK   57  A    between atoms: _128  and  _129
REMARK   58  A    between atoms: _132  and  _134
REMARK   59  A    between atoms: _134  and  _135
REMARK   60  A    between atoms: _134  and  _137
REMARK   61  A    between atoms: _137  and  _138
REMARK   62  A    between atoms: _140  and  _142
REMARK   63  A    between atoms: _142  and  _143
REMARK   64  A    between atoms: _142  and  _145
REMARK   65  A    between atoms: _145  and  _146
REMARK   66  A    between atoms: _146  and  _256
REMARK   67  A    between atoms: _147  and  _149
REMARK   68  A    between atoms: _149  and  _150
REMARK   69  A    between atoms: _149  and  _152
REMARK   70  A    between atoms: _152  and  _153
REMARK   71  A    between atoms: _153  and  _154
REMARK   72  A    between atoms: _159  and  _161
REMARK   73  A    between atoms: _161  and  _162
REMARK   74  A    between atoms: _164  and  _166
REMARK   75  A    between atoms: _166  and  _167
REMARK   76  A    between atoms: _166  and  _169
REMARK   77  A    between atoms: _169  and  _170
REMARK   78  A    between atoms: _173  and  _175
REMARK   79  A    between atoms: _175  and  _176
REMARK   80  A    between atoms: _175  and  _178
REMARK   81  A    between atoms: _178  and  _179
REMARK   82  A    between atoms: _181  and  _183
REMARK   83  A    between atoms: _183  and  _184
REMARK   84  A    between atoms: _186  and  _188
REMARK   85  A    between atoms: _188  and  _189
REMARK   86  A    between atoms: _191  and  _193
REMARK   87  A    between atoms: _193  and  _194
REMARK   88  A    between atoms: _193  and  _196
REMARK   89  A    between atoms: _196  and  _197
REMARK   90  A    between atoms: _200  and  _202
REMARK   91  A    between atoms: _202  and  _203
REMARK   92  A    between atoms: _202  and  _205
REMARK   93  A    between atoms: _208  and  _210
REMARK   94  A    between atoms: _210  and  _211
REMARK   95  A    between atoms: _210  and  _213
REMARK   96  A    between atoms: _213  and  _214
REMARK   97  A    between atoms: _216  and  _218
REMARK   98  A    between atoms: _218  and  _219
REMARK   99  A    between atoms: _218  and  _221
REMARK  100  A    between atoms: _221  and  _222
REMARK  101  A    between atoms: _232  and  _234
REMARK  102  A    between atoms: _234  and  _235
REMARK  103  A    between atoms: _237  and  _239
REMARK  104  A    between atoms: _239  and  _240
REMARK  105  A    between atoms: _239  and  _242
REMARK  106  A    between atoms: _242  and  _243
REMARK  107  A    between atoms: _245  and  _247
REMARK  108  A    between atoms: _247  and  _248
REMARK  109  A    between atoms: _250  and  _252
REMARK  110  A    between atoms: _252  and  _253
REMARK  111  A    between atoms: _252  and  _255
REMARK  112  A    between atoms: _255  and  _256
REMARK  113  A    between atoms: _257  and  _259
REMARK  114  A    between atoms: _259  and  _260
REMARK  115  A    between atoms: _263  and  _265
REMARK  116  A    between atoms: _265  and  _266
REMARK  117  A    between atoms: _265  and  _268
REMARK  118  A    between atoms: _268  and  _269
REMARK  119  A    between atoms: _269  and  _270
REMARK  120  A    between atoms: _275  and  _277
REMARK  121  A    between atoms: _277  and  _278
REMARK  122  A    between atoms: _277  and  _280
REMARK  123  A    between atoms: _280  and  _281
REMARK  124  A    between atoms: _281  and  _282
REMARK  125  A    between atoms: _282  and  _283
REMARK  126  A    between atoms: _283  and  _284
REMARK  127  A    between atoms: _289  and  _290
REMARK  128  A    between atoms: _295  and  _297
REMARK  129  A    between atoms: _297  and  _298
REMARK  130  A    between atoms: _300  and  _302
REMARK  131  A    between atoms: _302  and  _303
REMARK  132  A    between atoms: _302  and  _305
REMARK  133  A    between atoms: _308  and  _310
REMARK  134  A    between atoms: _310  and  _311
REMARK  135  A    between atoms: _310  and  _313
REMARK  136  A    between atoms: _313  and  _314
REMARK  137  A    between atoms: _319  and  _320
REMARK                            x       y       z     vdW  Elec       q    Type
REMARK                         _______ _______ _______ _____ _____    ______ ____
ROOT
ATOM      1  CA  LEU A   1      50.410   7.582  49.910  0.00  0.00    +0.133 C 
ENDROOT
BRANCH   1   2
ATOM      2  N   LEU A   1      50.434   7.771  48.439  0.00  0.00    -0.239 NA
ATOM      3  H   LEU A   1      49.545   7.687  47.905  0.00  0.00    +0.142 HD
ENDBRANCH   1   2
BRANCH   1   4
ATOM      4  C   LEU A   1      49.299   6.585  50.261  0.00  0.00    +0.224 C 
ATOM      5  O   LEU A   1      48.186   6.754  49.801  0.00  0.00    -0.287 OA
ENDBRANCH   1   4
BRANCH   1   6
ATOM      6  CB  LEU A   1      50.135   8.956  50.564  0.00  0.00    +0.025 C 
BRANCH   6   7
ATOM      7  CG  LEU A   1      49.803   8.864  52.101  0.00  0.00    +0.002 C 
ATOM      8  CD2 LEU A   1      51.039   8.383  52.885  0.00  0.00    +0.000 C 
ATOM      9  CD1 LEU A   1      49.366  10.236  52.652  0.00  0.00    +0.000 C 
ENDBRANCH   6   7
ENDBRANCH   1   6
TORSDOF 4
REMARK  Name = ../refined-set-2016/1c5t/1c5t_pocket.pdb
REMARK  137 active torsions:
REMARK  status: ('A' for Active; 'I' for Inactive)
REMARK    1  A    between atoms: _1  and  _3
REMARK    2  A    between atoms: _3  and  _4
REMARK    3  A    between atoms: _3  and  _6
REMARK    4  A    between atoms: _9  and  _11
REMARK    5  A    between atoms: _11  and  _12
REMARK    6  A    between atoms: _11  and  _14
REMARK    7  A    between atoms: _14  and  _15
REMARK    8  A    between atoms: _15  and  _39
REMARK    9  A    between atoms: _16  and  _18
REMARK   10  A    between atoms: _18  and  _19
REMARK   11  A    between atoms: _22  and  _24
REMARK   12  A    between atoms: _24  and  _25
REMARK   13  A    between atoms: _24  and  _27
REMARK   14  A    between atoms: _27  and  _28
REMARK   15  A    between atoms: _33  and  _35
REMARK   16  A    between atoms: _35  and  _36
REMARK   17  A    between atoms: _35  and  _38
REMARK   18  A    between atoms: _38  and  _39
REMARK   19  A    between atoms: _40  and  _42
REMARK   20  A    between atoms: _42  and  _43
REMARK   21  A    between atoms: _42  and  _45
REMARK   22  A    between atoms: _45  and  _46
REMARK   23  A    between atoms: _49  and  _51
REMARK   24  A    between atoms: _51  and  _52
REMARK   25  A    between atoms: _51  and  _54
REMARK   26  A    between atoms: _54  and  _55
REMARK   27  A    between atoms: _58  and  _60
REMARK   28  A    between atoms: _60  and  _61
REMARK   29  A    between atoms: _60  and  _63
REMARK   30  A    between atoms: _63  and  _64
REMARK   31  A    between atoms: _67  and  _69
REMARK   32  A    between atoms: _69  and  _70
REMARK   33  A    between atoms: _69  and  _72
REMARK   34  A    between atoms: _72  and  _73
REMARK   35  A    between atoms: _78  and  _79
REMARK   36  A    between atoms: _81  and  _83
REMARK   37  A    between atoms: _83  and  _84
REMARK   38  A    between atoms: _83  and  _86
REMARK   39  A    between atoms: _86  and  _87
REMARK   40  A    between atoms: _90  and  _92
REMARK   41  A    between atoms: _92  and  _93
REMARK   42  A    between atoms: _92  and  _95
REMARK   43  A    between atoms: _95  and  _96
REMARK   44  A    between atoms: _101  and  _102
REMARK   45  A    between atoms: _104  and  _106
REMARK   46  A    between atoms: _106  and  _107
REMARK   47  A    between atoms: _110  and  _112
REMARK   48  A    between atoms: _112  and  _113
REMARK   49  A    between atoms: _112  and  _115
REMARK   50  A    between atoms: _115  and  _116
REMARK   51  A    between atoms: _116  and  _117
REMARK   52  A    between atoms: _117  and  _118
REMARK   53  A    between atoms: _118  and  _119
REMARK   54  A    between atoms: _123  and  _125
REMARK   55  A    between atoms: _125  and  _126
REMARK   56  A    between atoms: _125  and  _128
REMARK   57  A    between atoms: _128  and  _129
REMARK   58  A    between atoms: _132  and  _134
REMARK   59  A    between atoms: _134  and  _135
REMARK   60  A    between atoms: _134  and  _137
REMARK   61  A    between atoms: _137  and  _138
REMARK   62  A    between atoms: _140  and  _142
REMARK   63  A    between atoms: _142  and  _143
REMARK   64  A    between atoms: _142  and  _145
REMARK   65  A    between atoms: _145  and  _146
REMARK   66  A    between atoms: _146  and  _256
REMARK   67  A    between atoms: _147  and  _149
REMARK   68  A    between atoms: _149  and  _150
REMARK   69  A    between atoms: _149  and  _152
REMARK   70  A    between atoms: _152  and  _153
REMARK   71  A    between atoms: _153  and  _154
REMARK   72  A    between atoms: _159  and  _161
REMARK   73  A    between atoms: _161  and  _162
REMARK   74  A    between atoms: _164  and  _166
REMARK   75  A    between atoms: _166  and  _167
REMARK   76  A    between atoms: _166  and  _169
REMARK   77  A    between atoms: _169  and  _170
REMARK   78  A    between atoms: _173  and  _175
REMARK   79  A    between atoms: _175  and  _176
REMARK   80  A    between atoms: _175  and  _178
REMARK   81  A    between atoms: _178  and  _179
REMARK   82  A    between atoms: _181  and  _183
REMARK   83  A    between atoms: _183  and  _184
REMARK   84  A    between atoms: _186  and  _188
REMARK   85  A    between atoms: _188  and  _189
REMARK   86  A    between atoms: _191  and  _193
REMARK   87  A    between atoms: _193  and  _194
REMARK   88  A    between atoms: _193  and  _196
REMARK   89  A    between atoms: _196  and  _197
REMARK   90  A    between atoms: _200  and  _202
REMARK   91  A    between atoms: _202  and  _203
REMARK   92  A    between atoms: _202  and  _205
REMARK   93  A    between atoms: _208  and  _210
REMARK   94  A    between atoms: _210  and  _211
REMARK   95  A    between atoms: _210  and  _213
REMARK   96  A    between atoms: _213  and  _214
REMARK   97  A    between atoms: _216  and  _218
REMARK   98  A    between atoms: _218  and  _219
REMARK   99  A    between atoms: _218  and  _221
REMARK  100  A    between atoms: _221  and  _222
REMARK  101  A    between atoms: _232  and  _234
REMARK  102  A    between atoms: _234  and  _235
REMARK  103  A    between atoms: _237  and  _239
REMARK  104  A    between atoms: _239  and  _240
REMARK  105  A    between atoms: _239  and  _242
REMARK  106  A    between atoms: _242  and  _243
REMARK  107  A    between atoms: _245  and  _247
REMARK  108  A    between atoms: _247  and  _248
REMARK  109  A    between atoms: _250  and  _252
REMARK  110  A    between atoms: _252  and  _253
REMARK  111  A    between atoms: _252  and  _255
REMARK  112  A    between atoms: _255  and  _256
REMARK  113  A    between atoms: _257  and  _259
REMARK  114  A    between atoms: _259  and  _260
REMARK  115  A    between atoms: _263  and  _265
REMARK  116  A    between atoms: _265  and  _266
REMARK  117  A    between atoms: _265  and  _268
REMARK  118  A    between atoms: _268  and  _269
REMARK  119  A    between atoms: _269  and  _270
REMARK  120  A    between atoms: _275  and  _277
REMARK  121  A    between atoms: _277  and  _278
REMARK  122  A    between atoms: _277  and  _280
REMARK  123  A    between atoms: _280  and  _281
REMARK  124  A    between atoms: _281  and  _282
REMARK  125  A    between atoms: _282  and  _283
REMARK  126  A    between atoms: _283  and  _284
REMARK  127  A    between atoms: _289  and  _290
REMARK  128  A    between atoms: _295  and  _297
REMARK  129  A    between atoms: _297  and  _298
REMARK  130  A    between atoms: _300  and  _302
REMARK  131  A    between atoms: _302  and  _303
REMARK  132  A    between atoms: _302  and  _305
REMARK  133  A    between atoms: _308  and  _310
REMARK  134  A    between atoms: _310  and  _311
REMARK  135  A    between atoms: _310  and  _313
REMARK  136  A    between atoms: _313  and  _314
REMARK  137  A    between atoms: _319  and  _320
REMARK                            x       y       z     vdW  Elec       q    Type
REMARK                         _______ _______ _______ _____ _____    ______ ____
ROOT
ATOM      1  CG  TYR A   1      39.697  19.301  62.110  0.00  0.00    -0.020 A 
ATOM      2  CD2 TYR A   1      40.563  20.359  61.924  0.00  0.00    -0.001 A 
ATOM      3  CE2 TYR A   1      41.767  20.157  61.278  0.00  0.00    +0.036 A 
ATOM      4  CZ  TYR A   1      42.120  18.901  60.812  0.00  0.00    +0.134 A 
ATOM      5  CE1 TYR A   1      41.263  17.843  61.001  0.00  0.00    +0.036 A 
ATOM      6  CD1 TYR A   1      40.056  18.044  61.650  0.00  0.00    -0.001 A 
ENDROOT
BRANCH   4   7
ATOM      7  OH  TYR A   1      43.311  18.719  60.147  0.00  0.00    -0.506 OA
ATOM      8  HH  TYR A   1      43.401  17.768  59.887  0.00  0.00    +0.292 HD
ENDBRANCH   4   7
BRANCH   1   9
ATOM      9  CB  TYR A   1      38.326  19.537  62.781  0.00  0.00    +0.051 C 
BRANCH   9  10
ATOM     10  CA  TYR A   1      38.391  19.654  64.311  0.00  0.00    +0.137 C 
BRANCH  10  11
ATOM     11  N   TYR A   1      39.028  18.416  64.867  0.00  0.00    -0.239 NA
ATOM     12  H   TYR A   1      38.529  17.505  64.818  0.00  0.00    +0.142 HD
ENDBRANCH  10  11
BRANCH  10  13
ATOM     13  C   TYR A   1      36.950  19.927  64.862  0.00  0.00    +0.224 C 
ATOM     14  O   TYR A   1      35.955  19.757  64.164  0.00  0.00    -0.287 OA
ENDBRANCH  10  13
ENDBRANCH   9  10
ENDBRANCH   1   9
TORSDOF 5
REMARK  Name = ../refined-set-2016/1c5t/1c5t_pocket.pdb
REMARK  137 active torsions:
REMARK  status: ('A' for Active; 'I' for Inactive)
REMARK    1  A    between atoms: _1  and  _3
REMARK    2  A    between atoms: _3  and  _4
REMARK    3  A    between atoms: _3  and  _6
REMARK    4  A    between atoms: _9  and  _11
REMARK    5  A    between atoms: _11  and  _12
REMARK    6  A    between atoms: _11  and  _14
REMARK    7  A    between atoms: _14  and  _15
REMARK    8  A    between atoms: _15  and  _39
REMARK    9  A    between atoms: _16  and  _18
REMARK   10  A    between atoms: _18  and  _19
REMARK   11  A    between atoms: _22  and  _24
REMARK   12  A    between atoms: _24  and  _25
REMARK   13  A    between atoms: _24  and  _27
REMARK   14  A    between atoms: _27  and  _28
REMARK   15  A    between atoms: _33  and  _35
REMARK   16  A    between atoms: _35  and  _36
REMARK   17  A    between atoms: _35  and  _38
REMARK   18  A    between atoms: _38  and  _39
REMARK   19  A    between atoms: _40  and  _42
REMARK   20  A    between atoms: _42  and  _43
REMARK   21  A    between atoms: _42  and  _45
REMARK   22  A    between atoms: _45  and  _46
REMARK   23  A    between atoms: _49  and  _51
REMARK   24  A    between atoms: _51  and  _52
REMARK   25  A    between atoms: _51  and  _54
REMARK   26  A    between atoms: _54  and  _55
REMARK   27  A    between atoms: _58  and  _60
REMARK   28  A    between atoms: _60  and  _61
REMARK   29  A    between atoms: _60  and  _63
REMARK   30  A    between atoms: _63  and  _64
REMARK   31  A    between atoms: _67  and  _69
REMARK   32  A    between atoms: _69  and  _70
REMARK   33  A    between atoms: _69  and  _72
REMARK   34  A    between atoms: _72  and  _73
REMARK   35  A    between atoms: _78  and  _79
REMARK   36  A    between atoms: _81  and  _83
REMARK   37  A    between atoms: _83  and  _84
REMARK   38  A    between atoms: _83  and  _86
REMARK   39  A    between atoms: _86  and  _87
REMARK   40  A    between atoms: _90  and  _92
REMARK   41  A    between atoms: _92  and  _93
REMARK   42  A    between atoms: _92  and  _95
REMARK   43  A    between atoms: _95  and  _96
REMARK   44  A    between atoms: _101  and  _102
REMARK   45  A    between atoms: _104  and  _106
REMARK   46  A    between atoms: _106  and  _107
REMARK   47  A    between atoms: _110  and  _112
REMARK   48  A    between atoms: _112  and  _113
REMARK   49  A    between atoms: _112  and  _115
REMARK   50  A    between atoms: _115  and  _116
REMARK   51  A    between atoms: _116  and  _117
REMARK   52  A    between atoms: _117  and  _118
REMARK   53  A    between atoms: _118  and  _119
REMARK   54  A    between atoms: _123  and  _125
REMARK   55  A    between atoms: _125  and  _126
REMARK   56  A    between atoms: _125  and  _128
REMARK   57  A    between atoms: _128  and  _129
REMARK   58  A    between atoms: _132  and  _134
REMARK   59  A    between atoms: _134  and  _135
REMARK   60  A    between atoms: _134  and  _137
REMARK   61  A    between atoms: _137  and  _138
REMARK   62  A    between atoms: _140  and  _142
REMARK   63  A    between atoms: _142  and  _143
REMARK   64  A    between atoms: _142  and  _145
REMARK   65  A    between atoms: _145  and  _146
REMARK   66  A    between atoms: _146  and  _256
REMARK   67  A    between atoms: _147  and  _149
REMARK   68  A    between atoms: _149  and  _150
REMARK   69  A    between atoms: _149  and  _152
REMARK   70  A    between atoms: _152  and  _153
REMARK   71  A    between atoms: _153  and  _154
REMARK   72  A    between atoms: _159  and  _161
REMARK   73  A    between atoms: _161  and  _162
REMARK   74  A    between atoms: _164  and  _166
REMARK   75  A    between atoms: _166  and  _167
REMARK   76  A    between atoms: _166  and  _169
REMARK   77  A    between atoms: _169  and  _170
REMARK   78  A    between atoms: _173  and  _175
REMARK   79  A    between atoms: _175  and  _176
REMARK   80  A    between atoms: _175  and  _178
REMARK   81  A    between atoms: _178  and  _179
REMARK   82  A    between atoms: _181  and  _183
REMARK   83  A    between atoms: _183  and  _184
REMARK   84  A    between atoms: _186  and  _188
REMARK   85  A    between atoms: _188  and  _189
REMARK   86  A    between atoms: _191  and  _193
REMARK   87  A    between atoms: _193  and  _194
REMARK   88  A    between atoms: _193  and  _196
REMARK   89  A    between atoms: _196  and  _197
REMARK   90  A    between atoms: _200  and  _202
REMARK   91  A    between atoms: _202  and  _203
REMARK   92  A    between atoms: _202  and  _205
REMARK   93  A    between atoms: _208  and  _210
REMARK   94  A    between atoms: _210  and  _211
REMARK   95  A    between atoms: _210  and  _213
REMARK   96  A    between atoms: _213  and  _214
REMARK   97  A    between atoms: _216  and  _218
REMARK   98  A    between atoms: _218  and  _219
REMARK   99  A    between atoms: _218  and  _221
REMARK  100  A    between atoms: _221  and  _222
REMARK  101  A    between atoms: _232  and  _234
REMARK  102  A    between atoms: _234  and  _235
REMARK  103  A    between atoms: _237  and  _239
REMARK  104  A    between atoms: _239  and  _240
REMARK  105  A    between atoms: _239  and  _242
REMARK  106  A    between atoms: _242  and  _243
REMARK  107  A    between atoms: _245  and  _247
REMARK  108  A    between atoms: _247  and  _248
REMARK  109  A    between atoms: _250  and  _252
REMARK  110  A    between atoms: _252  and  _253
REMARK  111  A    between atoms: _252  and  _255
REMARK  112  A    between atoms: _255  and  _256
REMARK  113  A    between atoms: _257  and  _259
REMARK  114  A    between atoms: _259  and  _260
REMARK  115  A    between atoms: _263  and  _265
REMARK  116  A    between atoms: _265  and  _266
REMARK  117  A    between atoms: _265  and  _268
REMARK  118  A    between atoms: _268  and  _269
REMARK  119  A    between atoms: _269  and  _270
REMARK  120  A    between atoms: _275  and  _277
REMARK  121  A    between atoms: _277  and  _278
REMARK  122  A    between atoms: _277  and  _280
REMARK  123  A    between atoms: _280  and  _281
REMARK  124  A    between atoms: _281  and  _282
REMARK  125  A    between atoms: _282  and  _283
REMARK  126  A    between atoms: _283  and  _284
REMARK  127  A    between atoms: _289  and  _290
REMARK  128  A    between atoms: _295  and  _297
REMARK  129  A    between atoms: _297  and  _298
REMARK  130  A    between atoms: _300  and  _302
REMARK  131  A    between atoms: _302  and  _303
REMARK  132  A    between atoms: _302  and  _305
REMARK  133  A    between atoms: _308  and  _310
REMARK  134  A    between atoms: _310  and  _311
REMARK  135  A    between atoms: _310  and  _313
REMARK  136  A    between atoms: _313  and  _314
REMARK  137  A    between atoms: _319  and  _320
REMARK                            x       y       z     vdW  Elec       q    Type
REMARK                         _______ _______ _______ _____ _____    ______ ____
ROOT
ATOM      1  CA  ALA A   1      42.219   9.744  56.595  0.00  0.00    +0.133 C 
ATOM      2  CB  ALA A   1      42.138   9.463  55.110  0.00  0.00    +0.027 C 
ENDROOT
BRANCH   1   3
ATOM      3  N   ALA A   1      41.377  10.910  56.986  0.00  0.00    -0.239 NA
ATOM      4  H   ALA A   1      41.739  11.872  56.825  0.00  0.00    +0.142 HD
ENDBRANCH   1   3
BRANCH   1   5
ATOM      5  C   ALA A   1      43.639  10.164  56.919  0.00  0.00    +0.224 C 
ATOM      6  O   ALA A   1      43.983  11.322  56.743  0.00  0.00    -0.287 OA
ENDBRANCH   1   5
TORSDOF 2
REMARK  Name = ../refined-set-2016/1c5t/1c5t_pocket.pdb
REMARK  137 active torsions:
REMARK  status: ('A' for Active; 'I' for Inactive)
REMARK    1  A    between atoms: _1  and  _3
REMARK    2  A    between atoms: _3  and  _4
REMARK    3  A    between atoms: _3  and  _6
REMARK    4  A    between atoms: _9  and  _11
REMARK    5  A    between atoms: _11  and  _12
REMARK    6  A    between atoms: _11  and  _14
REMARK    7  A    between atoms: _14  and  _15
REMARK    8  A    between atoms: _15  and  _39
REMARK    9  A    between atoms: _16  and  _18
REMARK   10  A    between atoms: _18  and  _19
REMARK   11  A    between atoms: _22  and  _24
REMARK   12  A    between atoms: _24  and  _25
REMARK   13  A    between atoms: _24  and  _27
REMARK   14  A    between atoms: _27  and  _28
REMARK   15  A    between atoms: _33  and  _35
REMARK   16  A    between atoms: _35  and  _36
REMARK   17  A    between atoms: _35  and  _38
REMARK   18  A    between atoms: _38  and  _39
REMARK   19  A    between atoms: _40  and  _42
REMARK   20  A    between atoms: _42  and  _43
REMARK   21  A    between atoms: _42  and  _45
REMARK   22  A    between atoms: _45  and  _46
REMARK   23  A    between atoms: _49  and  _51
REMARK   24  A    between atoms: _51  and  _52
REMARK   25  A    between atoms: _51  and  _54
REMARK   26  A    between atoms: _54  and  _55
REMARK   27  A    between atoms: _58  and  _60
REMARK   28  A    between atoms: _60  and  _61
REMARK   29  A    between atoms: _60  and  _63
REMARK   30  A    between atoms: _63  and  _64
REMARK   31  A    between atoms: _67  and  _69
REMARK   32  A    between atoms: _69  and  _70
REMARK   33  A    between atoms: _69  and  _72
REMARK   34  A    between atoms: _72  and  _73
REMARK   35  A    between atoms: _78  and  _79
REMARK   36  A    between atoms: _81  and  _83
REMARK   37  A    between atoms: _83  and  _84
REMARK   38  A    between atoms: _83  and  _86
REMARK   39  A    between atoms: _86  and  _87
REMARK   40  A    between atoms: _90  and  _92
REMARK   41  A    between atoms: _92  and  _93
REMARK   42  A    between atoms: _92  and  _95
REMARK   43  A    between atoms: _95  and  _96
REMARK   44  A    between atoms: _101  and  _102
REMARK   45  A    between atoms: _104  and  _106
REMARK   46  A    between atoms: _106  and  _107
REMARK   47  A    between atoms: _110  and  _112
REMARK   48  A    between atoms: _112  and  _113
REMARK   49  A    between atoms: _112  and  _115
REMARK   50  A    between atoms: _115  and  _116
REMARK   51  A    between atoms: _116  and  _117
REMARK   52  A    between atoms: _117  and  _118
REMARK   53  A    between atoms: _118  and  _119
REMARK   54  A    between atoms: _123  and  _125
REMARK   55  A    between atoms: _125  and  _126
REMARK   56  A    between atoms: _125  and  _128
REMARK   57  A    between atoms: _128  and  _129
REMARK   58  A    between atoms: _132  and  _134
REMARK   59  A    between atoms: _134  and  _135
REMARK   60  A    between atoms: _134  and  _137
REMARK   61  A    between atoms: _137  and  _138
REMARK   62  A    between atoms: _140  and  _142
REMARK   63  A    between atoms: _142  and  _143
REMARK   64  A    between atoms: _142  and  _145
REMARK   65  A    between atoms: _145  and  _146
REMARK   66  A    between atoms: _146  and  _256
REMARK   67  A    between atoms: _147  and  _149
REMARK   68  A    between atoms: _149  and  _150
REMARK   69  A    between atoms: _149  and  _152
REMARK   70  A    between atoms: _152  and  _153
REMARK   71  A    between atoms: _153  and  _154
REMARK   72  A    between atoms: _159  and  _161
REMARK   73  A    between atoms: _161  and  _162
REMARK   74  A    between atoms: _164  and  _166
REMARK   75  A    between atoms: _166  and  _167
REMARK   76  A    between atoms: _166  and  _169
REMARK   77  A    between atoms: _169  and  _170
REMARK   78  A    between atoms: _173  and  _175
REMARK   79  A    between atoms: _175  and  _176
REMARK   80  A    between atoms: _175  and  _178
REMARK   81  A    between atoms: _178  and  _179
REMARK   82  A    between atoms: _181  and  _183
REMARK   83  A    between atoms: _183  and  _184
REMARK   84  A    between atoms: _186  and  _188
REMARK   85  A    between atoms: _188  and  _189
REMARK   86  A    between atoms: _191  and  _193
REMARK   87  A    between atoms: _193  and  _194
REMARK   88  A    between atoms: _193  and  _196
REMARK   89  A    between atoms: _196  and  _197
REMARK   90  A    between atoms: _200  and  _202
REMARK   91  A    between atoms: _202  and  _203
REMARK   92  A    between atoms: _202  and  _205
REMARK   93  A    between atoms: _208  and  _210
REMARK   94  A    between atoms: _210  and  _211
REMARK   95  A    between atoms: _210  and  _213
REMARK   96  A    between atoms: _213  and  _214
REMARK   97  A    between atoms: _216  and  _218
REMARK   98  A    between atoms: _218  and  _219
REMARK   99  A    between atoms: _218  and  _221
REMARK  100  A    between atoms: _221  and  _222
REMARK  101  A    between atoms: _232  and  _234
REMARK  102  A    between atoms: _234  and  _235
REMARK  103  A    between atoms: _237  and  _239
REMARK  104  A    between atoms: _239  and  _240
REMARK  105  A    between atoms: _239  and  _242
REMARK  106  A    between atoms: _242  and  _243
REMARK  107  A    between atoms: _245  and  _247
REMARK  108  A    between atoms: _247  and  _248
REMARK  109  A    between atoms: _250  and  _252
REMARK  110  A    between atoms: _252  and  _253
REMARK  111  A    between atoms: _252  and  _255
REMARK  112  A    between atoms: _255  and  _256
REMARK  113  A    between atoms: _257  and  _259
REMARK  114  A    between atoms: _259  and  _260
REMARK  115  A    between atoms: _263  and  _265
REMARK  116  A    between atoms: _265  and  _266
REMARK  117  A    between atoms: _265  and  _268
REMARK  118  A    between atoms: _268  and  _269
REMARK  119  A    between atoms: _269  and  _270
REMARK  120  A    between atoms: _275  and  _277
REMARK  121  A    between atoms: _277  and  _278
REMARK  122  A    between atoms: _277  and  _280
REMARK  123  A    between atoms: _280  and  _281
REMARK  124  A    between atoms: _281  and  _282
REMARK  125  A    between atoms: _282  and  _283
REMARK  126  A    between atoms: _283  and  _284
REMARK  127  A    between atoms: _289  and  _290
REMARK  128  A    between atoms: _295  and  _297
REMARK  129  A    between atoms: _297  and  _298
REMARK  130  A    between atoms: _300  and  _302
REMARK  131  A    between atoms: _302  and  _303
REMARK  132  A    between atoms: _302  and  _305
REMARK  133  A    between atoms: _308  and  _310
REMARK  134  A    between atoms: _310  and  _311
REMARK  135  A    between atoms: _310  and  _313
REMARK  136  A    between atoms: _313  and  _314
REMARK  137  A    between atoms: _319  and  _320
REMARK                            x       y       z     vdW  Elec       q    Type
REMARK                         _______ _______ _______ _____ _____    ______ ____
ROOT
ATOM      1  CB  SER A   8      51.046  19.274  54.950  0.00  0.00    +0.098 C 
ENDROOT
BRANCH   1   2
ATOM      2  SG  SER A   8      50.215  20.439  53.843  0.00  0.00    -0.080 S 
BRANCH   2   3
ATOM      3  SG  TRP A   4      51.228  20.280  52.095  0.00  0.00    -0.080 S 
BRANCH   3   4
ATOM      4  CB  TRP A   4      50.449  18.874  51.306  0.00  0.00    +0.098 C 
BRANCH   4   5
ATOM      5  CA  TRP A   4      48.892  18.856  51.126  0.00  0.00    +0.160 C 
BRANCH   5   6
ATOM      6  C   TRP A   4      48.448  19.708  49.943  0.00  0.00    +0.242 C 
ATOM      7  N   GLN A   5      48.739  20.975  50.073  0.00  0.00    -0.297 N 
ATOM      8  H   GLN A   5      49.223  21.306  50.932  0.00  0.00    +0.150 HD
ATOM      9  O   TRP A   4      47.894  19.209  48.966  0.00  0.00    -0.273 OA
BRANCH   7  10
ATOM     10  CA  GLN A   5      48.382  21.957  48.996  0.00  0.00    +0.149 C 
BRANCH  10  11
ATOM     11  C   GLN A   5      48.964  21.436  47.655  0.00  0.00    +0.241 C 
ATOM     12  O   GLN A   5      50.079  20.942  47.581  0.00  0.00    -0.273 OA
ATOM     13  N   GLY A   6      48.176  21.553  46.629  0.00  0.00    -0.295 N 
ATOM     14  H   GLY A   6      47.234  21.977  46.753  0.00  0.00    +0.150 HD
BRANCH  13  15
ATOM     15  CA  GLY A   6      48.597  21.092  45.282  0.00  0.00    +0.176 C 
BRANCH  15  16
ATOM     16  C   GLY A   6      47.976  19.729  45.021  0.00  0.00    +0.243 C 
ATOM     17  N   ASP A   7      47.590  19.067  46.091  0.00  0.00    -0.296 N 
ATOM     18  H   ASP A   7      47.730  19.491  47.030  0.00  0.00    +0.150 HD
ATOM     19  O   GLY A   6      47.873  19.299  43.880  0.00  0.00    -0.273 OA
BRANCH  17  20
ATOM     20  CA  ASP A   7      46.955  17.718  45.985  0.00  0.00    +0.160 C 
BRANCH  20  21
ATOM     21  C   ASP A   7      45.416  17.870  45.893  0.00  0.00    +0.241 C 
ATOM     22  N   SER A   8      44.938  19.055  46.220  0.00  0.00    -0.295 N 
ATOM     23  H   SER A   8      45.610  19.787  46.526  0.00  0.00    +0.150 HD
ATOM     24  O   ASP A   7      44.741  16.903  45.548  0.00  0.00    -0.273 OA
BRANCH  22  25
ATOM     25  CA  SER A   8      43.477  19.409  46.176  0.00  0.00    +0.178 C 
BRANCH  25  26
ATOM     26  C   SER A   8      42.753  18.819  44.942  0.00  0.00    +0.243 C 
ATOM     27  N   GLY A   9      41.585  18.272  45.190  0.00  0.00    -0.295 N 
ATOM     28  H   GLY A   9      41.231  18.243  46.167  0.00  0.00    +0.150 HD
ATOM     29  O   SER A   8      43.278  18.895  43.856  0.00  0.00    -0.273 OA
BRANCH  27  30
ATOM     30  CA  GLY A   9      40.761  17.694  44.097  0.00  0.00    +0.176 C 
BRANCH  30  31
ATOM     31  C   GLY A   9      41.105  16.285  43.710  0.00  0.00    +0.243 C 
ATOM     32  N   GLY A  10      42.223  15.821  44.172  0.00  0.00    -0.296 N 
ATOM     33  H   GLY A  10      42.824  16.405  44.788  0.00  0.00    +0.150 HD
ATOM     34  O   GLY A   9      40.350  15.644  43.008  0.00  0.00    -0.273 OA
BRANCH  32  35
ATOM     35  CA  GLY A  10      42.631  14.442  43.806  0.00  0.00    +0.163 C 
BRANCH  35  36
ATOM     36  C   GLY A  10      41.913  13.328  44.511  0.00  0.00    +0.229 C 
ATOM     37  O   GLY A  10      41.189  13.563  45.456  0.00  0.00    -0.286 OA
ENDBRANCH  35  36
ENDBRANCH  32  35
ENDBRANCH  30  31
ENDBRANCH  27  30
ENDBRANCH  25  26
BRANCH  25  38
ATOM     38  CB  SER A   8      43.255  20.932  46.066  0.00  0.00    +0.166 C 
BRANCH  38  39
ATOM     39  OG  SER A   8      43.864  21.506  47.211  0.00  0.00    -0.380 OA
ATOM     40  H   SER A   8      44.829  21.286  47.215  0.00  0.00    +0.211 HD
ENDBRANCH  38  39
ENDBRANCH  25  38
ENDBRANCH  22  25
ENDBRANCH  20  21
BRANCH  20  41
ATOM     41  CB  ASP A   7      47.271  16.869  47.220  0.00  0.00    +0.143 C 
BRANCH  41  42
ATOM     42  CG  ASP A   7      48.751  16.386  47.233  0.00  0.00    +0.367 C 
ATOM     43  OD2 ASP A   7      49.285  16.329  48.321  0.00  0.00    -0.246 OA
ATOM     44  OD1 ASP A   7      49.277  16.086  46.171  0.00  0.00    -0.246 OA
ENDBRANCH  41  42
ENDBRANCH  20  41
ENDBRANCH  17  20
ENDBRANCH  15  16
ENDBRANCH  13  15
ENDBRANCH  10  11
BRANCH  10  45
ATOM     45  CB  GLN A   5      48.984  23.369  49.298  0.00  0.00    +0.039 C 
BRANCH  45  46
ATOM     46  CG  GLN A   5      48.556  23.888  50.732  0.00  0.00    +0.087 C 
BRANCH  46  47
ATOM     47  CD  GLN A   5      48.872  25.373  50.900  0.00  0.00    +0.219 C 
ATOM     48  OE1 GLN A   5      48.644  25.964  51.934  0.00  0.00    -0.275 OA
ATOM     49  NE2 GLN A   5      49.398  26.025  49.909  0.00  0.00    -0.329 N 
ATOM     50 HE21 GLN A   5      49.617  27.037  50.010  0.00  0.00    +0.145 HD
ATOM     51 HE22 GLN A   5      49.601  25.536  49.014  0.00  0.00    +0.145 HD
ENDBRANCH  46  47
ENDBRANCH  45  46
ENDBRANCH  10  45
ENDBRANCH   7  10
ENDBRANCH   5   6
BRANCH   5  54
ATOM     52  C   SER A   3      48.503  16.558  51.774  0.00  0.00    +0.243 C 
ATOM     53  O   SER A   3      48.735  16.854  52.948  0.00  0.00    -0.273 OA
ATOM     54  N   TRP A   4      48.531  17.452  50.821  0.00  0.00    -0.296 N 
ATOM     55  H   TRP A   4      48.299  17.177  49.845  0.00  0.00    +0.150 HD
BRANCH  52  56
ATOM     56  CA  SER A   3      48.147  15.054  51.362  0.00  0.00    +0.178 C 
BRANCH  56  58
ATOM     57  C   VAL A   2      49.414  13.915  53.140  0.00  0.00    +0.241 C 
ATOM     58  N   SER A   3      48.267  14.430  52.719  0.00  0.00    -0.295 N 
ATOM     59  H   SER A   3      47.435  14.400  53.342  0.00  0.00    +0.150 HD
ATOM     60  O   VAL A   2      50.443  13.872  52.468  0.00  0.00    -0.273 OA
BRANCH  57  61
ATOM     61  CA  VAL A   2      49.414  13.348  54.579  0.00  0.00    +0.160 C 
BRANCH  61  64
ATOM     62  C   ILE A   1      50.917  11.956  55.941  0.00  0.00    +0.238 C 
ATOM     63  O   ILE A   1      50.074  11.835  56.822  0.00  0.00    -0.274 OA
ATOM     64  N   VAL A   2      50.721  12.627  54.830  0.00  0.00    -0.297 N 
ATOM     65  H   VAL A   2      51.473  12.664  54.113  0.00  0.00    +0.150 HD
BRANCH  62  66
ATOM     66  CA  ILE A   1      52.280  11.265  56.135  0.00  0.00    +0.145 C 
BRANCH  66  67
ATOM     67  N   ILE A   1      52.815  11.659  57.502  0.00  0.00    -0.238 NA
ATOM     68  H   ILE A   1      52.203  11.546  58.335  0.00  0.00    +0.142 HD
ENDBRANCH  66  67
BRANCH  66  69
ATOM     69  CB  ILE A   1      52.105   9.754  56.088  0.00  0.00    +0.026 C 
BRANCH  69  70
ATOM     70  CG  ILE A   1      53.488   9.067  56.055  0.00  0.00    -0.000 C 
BRANCH  70  71
ATOM     71  CD  ILE A   1      53.421   7.636  56.682  0.00  0.00    -0.024 C 
BRANCH  71  72
ATOM     72  CE  ILE A   1      54.210   7.630  58.032  0.00  0.00    -0.086 C 
BRANCH  72  73
ATOM     73  NZ  ILE A   1      53.576   8.496  59.080  0.00  0.00    +0.380 N 
ATOM     74  HZ1 ILE A   1      54.141   8.453  59.952  0.00  0.00    -0.089 HD
ATOM     75  HZ2 ILE A   1      52.613   8.155  59.273  0.00  0.00    -0.089 HD
ATOM     76  HZ3 ILE A   1      53.536   9.478  58.739  0.00  0.00    -0.089 HD
ENDBRANCH  72  73
ENDBRANCH  71  72
ENDBRANCH  70  71
ENDBRANCH  69  70
ENDBRANCH  66  69
ENDBRANCH  62  66
ENDBRANCH  61  64
BRANCH  61  77
ATOM     77  CB  VAL A   2      49.328  14.543  55.560  0.00  0.00    +0.143 C 
BRANCH  77  78
ATOM     78  CG  VAL A   2      47.979  15.281  55.731  0.00  0.00    +0.367 C 
ATOM     79  OD2 VAL A   2      48.034  16.257  56.462  0.00  0.00    -0.246 OA
ATOM     80  OD1 VAL A   2      46.987  14.857  55.162  0.00  0.00    -0.246 OA
ENDBRANCH  77  78
ENDBRANCH  61  77
ENDBRANCH  57  61
ENDBRANCH  56  58
BRANCH  56  81
ATOM     81  CB  SER A   3      46.672  14.896  50.787  0.00  0.00    +0.166 C 
BRANCH  81  82
ATOM     82  OG  SER A   3      45.771  15.343  51.778  0.00  0.00    -0.380 OA
ATOM     83  H   SER A   3      45.882  14.795  52.595  0.00  0.00    +0.211 HD
ENDBRANCH  81  82
ENDBRANCH  56  81
ENDBRANCH  52  56
ENDBRANCH   5  54
ENDBRANCH   4   5
ENDBRANCH   3   4
ENDBRANCH   2   3
ENDBRANCH   1   2
BRANCH   1  84
ATOM     84  CA  SER A   8      50.378  19.136  56.344  0.00  0.00    +0.160 C 
BRANCH  84  85
ATOM     85  N   SER A   8      50.282  20.437  57.040  0.00  0.00    -0.296 N 
ATOM     86  H   SER A   8      51.118  20.842  57.507  0.00  0.00    +0.150 HD
ATOM     87  C   ASP A   7      49.143  21.076  57.066  0.00  0.00    +0.243 C 
ATOM     88  O   ASP A   7      48.118  20.683  56.534  0.00  0.00    -0.273 OA
BRANCH  87  89
ATOM     89  CA  ASP A   7      49.094  22.405  57.806  0.00  0.00    +0.176 C 
BRANCH  89  90
ATOM     90  N   ASP A   7      47.633  22.625  58.054  0.00  0.00    -0.295 N 
ATOM     91  C   GLY A   6      46.980  21.819  58.846  0.00  0.00    +0.243 C 
ATOM     92  O   GLY A   6      47.475  20.857  59.426  0.00  0.00    -0.273 OA
ATOM     93  H   ASP A   7      47.140  23.418  57.596  0.00  0.00    +0.150 HD
BRANCH  91  94
ATOM     94  CA  GLY A   6      45.497  22.113  59.040  0.00  0.00    +0.178 C 
BRANCH  94  95
ATOM     95  N   GLY A   6      44.806  21.043  58.257  0.00  0.00    -0.295 N 
ATOM     96  H   GLY A   6      45.015  20.048  58.476  0.00  0.00    +0.150 HD
ATOM     97  C   GLN A   5      43.954  21.311  57.313  0.00  0.00    +0.243 C 
ATOM     98  O   GLN A   5      43.639  22.438  56.987  0.00  0.00    -0.273 OA
BRANCH  97  99
ATOM     99  CA  GLN A   5      43.332  20.128  56.602  0.00  0.00    +0.176 C 
BRANCH  99 100
ATOM    100  N   GLN A   5      42.596  20.657  55.419  0.00  0.00    -0.295 N 
ATOM    101  H   GLN A   5      42.520  21.684  55.275  0.00  0.00    +0.150 HD
ATOM    102  C   TRP A   4      42.048  19.841  54.565  0.00  0.00    +0.241 C 
ATOM    103  O   TRP A   4      42.092  18.626  54.631  0.00  0.00    -0.273 OA
BRANCH 102 104
ATOM    104  CA  TRP A   4      41.330  20.498  53.427  0.00  0.00    +0.153 C 
BRANCH 104 105
ATOM    105  N   TRP A   4      40.615  19.520  52.556  0.00  0.00    -0.297 N 
ATOM    106  H   TRP A   4      40.332  18.587  52.919  0.00  0.00    +0.150 HD
ATOM    107  C   SER A   3      40.353  19.872  51.315  0.00  0.00    +0.243 C 
ATOM    108  O   SER A   3      40.656  20.964  50.856  0.00  0.00    -0.273 OA
BRANCH 107 109
ATOM    109  CA  SER A   3      39.615  18.874  50.419  0.00  0.00    +0.178 C 
BRANCH 109 110
ATOM    110  N   SER A   3      40.326  17.581  50.171  0.00  0.00    -0.295 N 
ATOM    111  H   SER A   3      40.515  16.937  50.965  0.00  0.00    +0.150 HD
ATOM    112  C   VAL A   2      40.714  17.251  48.958  0.00  0.00    +0.241 C 
ATOM    113  O   VAL A   2      40.570  17.942  47.967  0.00  0.00    -0.273 OA
BRANCH 112 114
ATOM    114  CA  VAL A   2      41.413  15.883  48.814  0.00  0.00    +0.148 C 
BRANCH 114 115
ATOM    115  N   VAL A   2      40.530  15.070  47.892  0.00  0.00    -0.297 N 
ATOM    116  C   ILE A   1      39.293  14.791  48.225  0.00  0.00    +0.238 C 
ATOM    117  O   ILE A   1      38.779  15.128  49.284  0.00  0.00    -0.274 OA
ATOM    118  H   VAL A   2      40.908  14.729  46.985  0.00  0.00    +0.150 HD
BRANCH 116 119
ATOM    119  CA  ILE A   1      38.466  13.971  47.225  0.00  0.00    +0.145 C 
BRANCH 119 120
ATOM    120  N   ILE A   1      37.843  12.864  48.023  0.00  0.00    -0.238 NA
ATOM    121  H   ILE A   1      37.343  13.117  48.899  0.00  0.00    +0.142 HD
ENDBRANCH 119 120
BRANCH 119 122
ATOM    122  CB  ILE A   1      37.385  14.883  46.591  0.00  0.00    +0.025 C 
ATOM    123  CG2 ILE A   1      38.085  15.976  45.745  0.00  0.00    +0.002 C 
BRANCH 122 124
ATOM    124  CG1 ILE A   1      36.462  14.020  45.640  0.00  0.00    +0.002 C 
ATOM    125  CD1 ILE A   1      35.256  14.825  45.130  0.00  0.00    +0.000 C 
ENDBRANCH 122 124
ENDBRANCH 119 122
ENDBRANCH 116 119
ENDBRANCH 114 115
BRANCH 114 126
ATOM    126  CB  VAL A   2      42.824  16.037  48.168  0.00  0.00    +0.027 C 
ATOM    127  CG2 VAL A   2      43.725  16.907  49.038  0.00  0.00    +0.002 C 
ATOM    128  CG1 VAL A   2      43.510  14.663  47.989  0.00  0.00    +0.002 C 
ENDBRANCH 114 126
ENDBRANCH 112 114
ENDBRANCH 109 110
BRANCH 109 129
ATOM    129  CB  SER A   3      38.195  18.455  50.993  0.00  0.00    +0.166 C 
BRANCH 129 130
ATOM    130  OG  SER A   3      37.414  19.617  51.171  0.00  0.00    -0.380 OA
ATOM    131  H   SER A   3      37.302  20.075  50.300  0.00  0.00    +0.211 HD
ENDBRANCH 129 130
ENDBRANCH 109 129
ENDBRANCH 107 109
ENDBRANCH 104 105
BRANCH 104 132
ATOM    132  CB  TRP A   4      40.323  21.535  53.977  0.00  0.00    +0.057 C 
BRANCH 132 133
ATOM    133  CG  TRP A   4      39.114  21.034  54.812  0.00  0.00    -0.002 A 
ATOM    134  CD2 TRP A   4      38.996  21.096  56.197  0.00  0.00    +0.013 A 
ATOM    135  CE3 TRP A   4      39.831  21.542  57.232  0.00  0.00    +0.001 A 
ATOM    136  CZ3 TRP A   4      39.405  21.464  58.565  0.00  0.00    +0.000 A 
ATOM    137  CH2 TRP A   4      38.145  20.943  58.869  0.00  0.00    +0.001 A 
ATOM    138  CZ2 TRP A   4      37.311  20.494  57.847  0.00  0.00    +0.017 A 
ATOM    139  CE2 TRP A   4      37.729  20.569  56.509  0.00  0.00    +0.056 A 
ATOM    140  NE1 TRP A   4      37.174  20.230  55.362  0.00  0.00    -0.352 N 
ATOM    141  HE1 TRP A   4      36.227  19.807  55.282  0.00  0.00    +0.166 HD
ATOM    142  CD1 TRP A   4      37.950  20.485  54.327  0.00  0.00    +0.068 A 
ENDBRANCH 132 133
ENDBRANCH 104 132
ENDBRANCH 102 104
ENDBRANCH  99 100
ENDBRANCH  97  99
ENDBRANCH  94  95
BRANCH  94 143
ATOM    143  CB  GLY A   6      45.135  22.003  60.528  0.00  0.00    +0.166 C 
BRANCH 143 144
ATOM    144  O   GLY A   6      45.800  23.117  61.127  0.00  0.00    -0.380 OA
ATOM    145  H   GLY A   6      45.466  23.956  60.722  0.00  0.00    +0.211 HD
ENDBRANCH 143 144
ENDBRANCH  94 143
ENDBRANCH  91  94
ENDBRANCH  89  90
ENDBRANCH  87  89
ENDBRANCH  84  85
BRANCH  84 146
ATOM    146  C   SER A   8      51.237  18.254  57.194  0.00  0.00    +0.242 C 
ATOM    147  O   SER A   8      52.291  18.657  57.623  0.00  0.00    -0.273 OA
ATOM    148  N   GLY A   9      50.757  17.077  57.420  0.00  0.00    -0.297 N 
ATOM    149  H   GLY A   9      49.828  16.845  57.015  0.00  0.00    +0.150 HD
BRANCH 148 150
ATOM    150  CA  GLY A   9      51.447  16.033  58.221  0.00  0.00    +0.149 C 
ATOM    151  CB  GLY A   9      52.795  15.676  57.546  0.00  0.00    +0.031 C 
BRANCH 150 152
ATOM    152  C   GLY A   9      51.695  16.415  59.659  0.00  0.00    +0.241 C 
ATOM    153  O   GLY A   9      52.613  15.872  60.249  0.00  0.00    -0.273 OA
ATOM    154  N   GLY A  10      50.895  17.293  60.183  0.00  0.00    -0.298 N 
ATOM    155  H   GLY A  10      50.128  17.711  59.619  0.00  0.00    +0.150 HD
BRANCH 154 156
ATOM    156  CA  GLY A  10      51.093  17.696  61.614  0.00  0.00    +0.137 C 
BRANCH 156 157
ATOM    157  C   GLY A  10      50.430  16.627  62.493  0.00  0.00    +0.227 C 
ATOM    158  O   GLY A  10      49.545  15.908  62.062  0.00  0.00    -0.286 OA
ENDBRANCH 156 157
BRANCH 156 159
ATOM    159  CB  GLY A  10      50.423  19.097  61.917  0.00  0.00    +0.037 C 
BRANCH 159 160
ATOM    160  CG  GLY A  10      51.257  20.285  61.294  0.00  0.00    +0.087 C 
BRANCH 160 161
ATOM    161  CD  GLY A  10      50.523  21.610  61.546  0.00  0.00    +0.219 C 
ATOM    162  OE1 GLY A  10      51.133  22.617  61.827  0.00  0.00    -0.275 OA
ATOM    163  NE2 GLY A  10      49.227  21.698  61.464  0.00  0.00    -0.329 N 
ATOM    164 HE21 GLY A  10      48.756  22.609  61.637  0.00  0.00    +0.145 HD
ATOM    165 HE22 GLY A  10      48.663  20.858  61.225  0.00  0.00    +0.145 HD
ENDBRANCH 160 161
ENDBRANCH 159 160
ENDBRANCH 156 159
ENDBRANCH 154 156
ENDBRANCH 150 152
ENDBRANCH 148 150
ENDBRANCH  84 146
ENDBRANCH   1  84
TORSDOF 73
REMARK  Name = ../refined-set-2016/1c5t/1c5t_pocket.pdb
REMARK  137 active torsions:
REMARK  status: ('A' for Active; 'I' for Inactive)
REMARK    1  A    between atoms: _1  and  _3
REMARK    2  A    between atoms: _3  and  _4
REMARK    3  A    between atoms: _3  and  _6
REMARK    4  A    between atoms: _9  and  _11
REMARK    5  A    between atoms: _11  and  _12
REMARK    6  A    between atoms: _11  and  _14
REMARK    7  A    between atoms: _14  and  _15
REMARK    8  A    between atoms: _15  and  _39
REMARK    9  A    between atoms: _16  and  _18
REMARK   10  A    between atoms: _18  and  _19
REMARK   11  A    between atoms: _22  and  _24
REMARK   12  A    between atoms: _24  and  _25
REMARK   13  A    between atoms: _24  and  _27
REMARK   14  A    between atoms: _27  and  _28
REMARK   15  A    between atoms: _33  and  _35
REMARK   16  A    between atoms: _35  and  _36
REMARK   17  A    between atoms: _35  and  _38
REMARK   18  A    between atoms: _38  and  _39
REMARK   19  A    between atoms: _40  and  _42
REMARK   20  A    between atoms: _42  and  _43
REMARK   21  A    between atoms: _42  and  _45
REMARK   22  A    between atoms: _45  and  _46
REMARK   23  A    between atoms: _49  and  _51
REMARK   24  A    between atoms: _51  and  _52
REMARK   25  A    between atoms: _51  and  _54
REMARK   26  A    between atoms: _54  and  _55
REMARK   27  A    between atoms: _58  and  _60
REMARK   28  A    between atoms: _60  and  _61
REMARK   29  A    between atoms: _60  and  _63
REMARK   30  A    between atoms: _63  and  _64
REMARK   31  A    between atoms: _67  and  _69
REMARK   32  A    between atoms: _69  and  _70
REMARK   33  A    between atoms: _69  and  _72
REMARK   34  A    between atoms: _72  and  _73
REMARK   35  A    between atoms: _78  and  _79
REMARK   36  A    between atoms: _81  and  _83
REMARK   37  A    between atoms: _83  and  _84
REMARK   38  A    between atoms: _83  and  _86
REMARK   39  A    between atoms: _86  and  _87
REMARK   40  A    between atoms: _90  and  _92
REMARK   41  A    between atoms: _92  and  _93
REMARK   42  A    between atoms: _92  and  _95
REMARK   43  A    between atoms: _95  and  _96
REMARK   44  A    between atoms: _101  and  _102
REMARK   45  A    between atoms: _104  and  _106
REMARK   46  A    between atoms: _106  and  _107
REMARK   47  A    between atoms: _110  and  _112
REMARK   48  A    between atoms: _112  and  _113
REMARK   49  A    between atoms: _112  and  _115
REMARK   50  A    between atoms: _115  and  _116
REMARK   51  A    between atoms: _116  and  _117
REMARK   52  A    between atoms: _117  and  _118
REMARK   53  A    between atoms: _118  and  _119
REMARK   54  A    between atoms: _123  and  _125
REMARK   55  A    between atoms: _125  and  _126
REMARK   56  A    between atoms: _125  and  _128
REMARK   57  A    between atoms: _128  and  _129
REMARK   58  A    between atoms: _132  and  _134
REMARK   59  A    between atoms: _134  and  _135
REMARK   60  A    between atoms: _134  and  _137
REMARK   61  A    between atoms: _137  and  _138
REMARK   62  A    between atoms: _140  and  _142
REMARK   63  A    between atoms: _142  and  _143
REMARK   64  A    between atoms: _142  and  _145
REMARK   65  A    between atoms: _145  and  _146
REMARK   66  A    between atoms: _146  and  _256
REMARK   67  A    between atoms: _147  and  _149
REMARK   68  A    between atoms: _149  and  _150
REMARK   69  A    between atoms: _149  and  _152
REMARK   70  A    between atoms: _152  and  _153
REMARK   71  A    between atoms: _153  and  _154
REMARK   72  A    between atoms: _159  and  _161
REMARK   73  A    between atoms: _161  and  _162
REMARK   74  A    between atoms: _164  and  _166
REMARK   75  A    between atoms: _166  and  _167
REMARK   76  A    between atoms: _166  and  _169
REMARK   77  A    between atoms: _169  and  _170
REMARK   78  A    between atoms: _173  and  _175
REMARK   79  A    between atoms: _175  and  _176
REMARK   80  A    between atoms: _175  and  _178
REMARK   81  A    between atoms: _178  and  _179
REMARK   82  A    between atoms: _181  and  _183
REMARK   83  A    between atoms: _183  and  _184
REMARK   84  A    between atoms: _186  and  _188
REMARK   85  A    between atoms: _188  and  _189
REMARK   86  A    between atoms: _191  and  _193
REMARK   87  A    between atoms: _193  and  _194
REMARK   88  A    between atoms: _193  and  _196
REMARK   89  A    between atoms: _196  and  _197
REMARK   90  A    between atoms: _200  and  _202
REMARK   91  A    between atoms: _202  and  _203
REMARK   92  A    between atoms: _202  and  _205
REMARK   93  A    between atoms: _208  and  _210
REMARK   94  A    between atoms: _210  and  _211
REMARK   95  A    between atoms: _210  and  _213
REMARK   96  A    between atoms: _213  and  _214
REMARK   97  A    between atoms: _216  and  _218
REMARK   98  A    between atoms: _218  and  _219
REMARK   99  A    between atoms: _218  and  _221
REMARK  100  A    between atoms: _221  and  _222
REMARK  101  A    between atoms: _232  and  _234
REMARK  102  A    between atoms: _234  and  _235
REMARK  103  A    between atoms: _237  and  _239
REMARK  104  A    between atoms: _239  and  _240
REMARK  105  A    between atoms: _239  and  _242
REMARK  106  A    between atoms: _242  and  _243
REMARK  107  A    between atoms: _245  and  _247
REMARK  108  A    between atoms: _247  and  _248
REMARK  109  A    between atoms: _250  and  _252
REMARK  110  A    between atoms: _252  and  _253
REMARK  111  A    between atoms: _252  and  _255
REMARK  112  A    between atoms: _255  and  _256
REMARK  113  A    between atoms: _257  and  _259
REMARK  114  A    between atoms: _259  and  _260
REMARK  115  A    between atoms: _263  and  _265
REMARK  116  A    between atoms: _265  and  _266
REMARK  117  A    between atoms: _265  and  _268
REMARK  118  A    between atoms: _268  and  _269
REMARK  119  A    between atoms: _269  and  _270
REMARK  120  A    between atoms: _275  and  _277
REMARK  121  A    between atoms: _277  and  _278
REMARK  122  A    between atoms: _277  and  _280
REMARK  123  A    between atoms: _280  and  _281
REMARK  124  A    between atoms: _281  and  _282
REMARK  125  A    between atoms: _282  and  _283
REMARK  126  A    between atoms: _283  and  _284
REMARK  127  A    between atoms: _289  and  _290
REMARK  128  A    between atoms: _295  and  _297
REMARK  129  A    between atoms: _297  and  _298
REMARK  130  A    between atoms: _300  and  _302
REMARK  131  A    between atoms: _302  and  _303
REMARK  132  A    between atoms: _302  and  _305
REMARK  133  A    between atoms: _308  and  _310
REMARK  134  A    between atoms: _310  and  _311
REMARK  135  A    between atoms: _310  and  _313
REMARK  136  A    between atoms: _313  and  _314
REMARK  137  A    between atoms: _319  and  _320
REMARK                            x       y       z     vdW  Elec       q    Type
REMARK                         _______ _______ _______ _____ _____    ______ ____
ROOT
ATOM      1  C   GLY A   3      42.114  15.178  56.237  0.00  0.00    +0.243 C 
ATOM      2  O   GLY A   3      41.717  14.134  56.752  0.00  0.00    -0.273 OA
ATOM      3  N   VAL A   4      41.356  16.090  55.665  0.00  0.00    -0.297 N 
ATOM      4  H   VAL A   4      41.812  16.932  55.259  0.00  0.00    +0.150 HD
ENDROOT
BRANCH   1   5
ATOM      5  CA  GLY A   3      43.626  15.489  56.234  0.00  0.00    +0.176 C 
BRANCH   5   8
ATOM      6  C   PRO A   2      44.099  15.319  58.588  0.00  0.00    +0.241 C 
ATOM      7  O   PRO A   2      43.502  16.368  58.770  0.00  0.00    -0.273 OA
ATOM      8  N   GLY A   3      44.222  14.798  57.404  0.00  0.00    -0.295 N 
ATOM      9  H   GLY A   3      44.735  13.902  57.277  0.00  0.00    +0.150 HD
BRANCH   6  15
ATOM     10  C   LYS A   1      45.671  16.382  61.095  0.00  0.00    +0.241 C 
ATOM     11  N   PRO A   2      44.847  15.347  61.029  0.00  0.00    -0.272 N 
ATOM     12  CD  PRO A   2      43.943  14.854  62.126  0.00  0.00    +0.094 C 
ATOM     13  CG  PRO A   2      43.050  13.834  61.395  0.00  0.00    +0.024 C 
ATOM     14  CB  PRO A   2      43.952  13.289  60.226  0.00  0.00    +0.031 C 
ATOM     15  CA  PRO A   2      44.750  14.531  59.768  0.00  0.00    +0.152 C 
ATOM     16  O   LYS A   1      46.401  16.697  60.162  0.00  0.00    -0.273 OA
BRANCH  10  17
ATOM     17  CA  LYS A   1      45.705  17.201  62.418  0.00  0.00    +0.145 C 
BRANCH  17  18
ATOM     18  N   LYS A   1      46.371  16.313  63.424  0.00  0.00    -0.238 NA
ATOM     19  H   LYS A   1      47.243  15.814  63.156  0.00  0.00    +0.142 HD
ENDBRANCH  17  18
BRANCH  17  20
ATOM     20  CB  LYS A   1      46.518  18.547  62.185  0.00  0.00    +0.026 C 
BRANCH  20  21
ATOM     21  CG  LYS A   1      46.322  19.582  63.358  0.00  0.00    -0.000 C 
BRANCH  21  22
ATOM     22  CD  LYS A   1      44.780  20.001  63.445  0.00  0.00    -0.024 C 
BRANCH  22  23
ATOM     23  CE  LYS A   1      44.457  20.963  64.647  0.00  0.00    -0.086 C 
BRANCH  23  24
ATOM     24  NZ  LYS A   1      43.002  21.307  64.626  0.00  0.00    +0.380 N 
ATOM     25  HZ1 LYS A   1      42.786  21.943  65.420  0.00  0.00    -0.089 HD
ATOM     26  HZ2 LYS A   1      42.440  20.436  64.715  0.00  0.00    -0.089 HD
ATOM     27  HZ3 LYS A   1      42.772  21.780  63.729  0.00  0.00    -0.089 HD
ENDBRANCH  23  24
ENDBRANCH  22  23
ENDBRANCH  21  22
ENDBRANCH  20  21
ENDBRANCH  17  20
ENDBRANCH  10  17
ENDBRANCH   6  15
ENDBRANCH   5   8
ENDBRANCH   1   5
BRANCH   3  28
ATOM     28  CA  VAL A   4      39.872  15.969  55.573  0.00  0.00    +0.149 C 
BRANCH  28  29
ATOM     29  C   VAL A   4      39.565  15.822  54.078  0.00  0.00    +0.241 C 
ATOM     30  N   TYR A   5      38.694  14.885  53.814  0.00  0.00    -0.298 N 
ATOM     31  H   TYR A   5      38.285  14.365  54.617  0.00  0.00    +0.150 HD
ATOM     32  O   VAL A   4      40.100  16.533  53.247  0.00  0.00    -0.273 OA
BRANCH  30  33
ATOM     33  CA  TYR A   5      38.246  14.509  52.447  0.00  0.00    +0.141 C 
BRANCH  33  34
ATOM     34  C   TYR A   5      36.745  14.557  52.221  0.00  0.00    +0.227 C 
ATOM     35  O   TYR A   5      36.015  14.280  53.162  0.00  0.00    -0.286 OA
ENDBRANCH  33  34
BRANCH  33  36
ATOM     36  CB  TYR A   5      38.749  13.049  52.197  0.00  0.00    +0.054 C 
BRANCH  36  37
ATOM     37  CG  TYR A   5      40.267  12.984  52.444  0.00  0.00    -0.020 A 
ATOM     38  CD2 TYR A   5      40.837  12.744  53.703  0.00  0.00    -0.001 A 
ATOM     39  CE2 TYR A   5      42.226  12.772  53.839  0.00  0.00    +0.036 A 
ATOM     40  CZ  TYR A   5      43.037  13.037  52.714  0.00  0.00    +0.134 A 
ATOM     41  CE1 TYR A   5      42.448  13.262  51.478  0.00  0.00    +0.036 A 
ATOM     42  CD1 TYR A   5      41.075  13.235  51.347  0.00  0.00    -0.001 A 
BRANCH  40  43
ATOM     43  OH  TYR A   5      44.419  13.116  52.723  0.00  0.00    -0.506 OA
ATOM     44  HH  TYR A   5      44.796  12.254  53.030  0.00  0.00    +0.292 HD
ENDBRANCH  40  43
ENDBRANCH  36  37
ENDBRANCH  33  36
ENDBRANCH  30  33
ENDBRANCH  28  29
BRANCH  28  45
ATOM     45  CB  VAL A   4      39.248  17.242  56.212  0.00  0.00    +0.027 C 
ATOM     46  CG2 VAL A   4      39.852  17.501  57.641  0.00  0.00    +0.002 C 
ATOM     47  CG1 VAL A   4      37.714  17.005  56.330  0.00  0.00    +0.002 C 
ENDBRANCH  28  45
ENDBRANCH   3  28
TORSDOF 18
REMARK  Name = ../refined-set-2016/1c5t/1c5t_pocket.pdb
REMARK  137 active torsions:
REMARK  status: ('A' for Active; 'I' for Inactive)
REMARK    1  A    between atoms: _1  and  _3
REMARK    2  A    between atoms: _3  and  _4
REMARK    3  A    between atoms: _3  and  _6
REMARK    4  A    between atoms: _9  and  _11
REMARK    5  A    between atoms: _11  and  _12
REMARK    6  A    between atoms: _11  and  _14
REMARK    7  A    between atoms: _14  and  _15
REMARK    8  A    between atoms: _15  and  _39
REMARK    9  A    between atoms: _16  and  _18
REMARK   10  A    between atoms: _18  and  _19
REMARK   11  A    between atoms: _22  and  _24
REMARK   12  A    between atoms: _24  and  _25
REMARK   13  A    between atoms: _24  and  _27
REMARK   14  A    between atoms: _27  and  _28
REMARK   15  A    between atoms: _33  and  _35
REMARK   16  A    between atoms: _35  and  _36
REMARK   17  A    between atoms: _35  and  _38
REMARK   18  A    between atoms: _38  and  _39
REMARK   19  A    between atoms: _40  and  _42
REMARK   20  A    between atoms: _42  and  _43
REMARK   21  A    between atoms: _42  and  _45
REMARK   22  A    between atoms: _45  and  _46
REMARK   23  A    between atoms: _49  and  _51
REMARK   24  A    between atoms: _51  and  _52
REMARK   25  A    between atoms: _51  and  _54
REMARK   26  A    between atoms: _54  and  _55
REMARK   27  A    between atoms: _58  and  _60
REMARK   28  A    between atoms: _60  and  _61
REMARK   29  A    between atoms: _60  and  _63
REMARK   30  A    between atoms: _63  and  _64
REMARK   31  A    between atoms: _67  and  _69
REMARK   32  A    between atoms: _69  and  _70
REMARK   33  A    between atoms: _69  and  _72
REMARK   34  A    between atoms: _72  and  _73
REMARK   35  A    between atoms: _78  and  _79
REMARK   36  A    between atoms: _81  and  _83
REMARK   37  A    between atoms: _83  and  _84
REMARK   38  A    between atoms: _83  and  _86
REMARK   39  A    between atoms: _86  and  _87
REMARK   40  A    between atoms: _90  and  _92
REMARK   41  A    between atoms: _92  and  _93
REMARK   42  A    between atoms: _92  and  _95
REMARK   43  A    between atoms: _95  and  _96
REMARK   44  A    between atoms: _101  and  _102
REMARK   45  A    between atoms: _104  and  _106
REMARK   46  A    between atoms: _106  and  _107
REMARK   47  A    between atoms: _110  and  _112
REMARK   48  A    between atoms: _112  and  _113
REMARK   49  A    between atoms: _112  and  _115
REMARK   50  A    between atoms: _115  and  _116
REMARK   51  A    between atoms: _116  and  _117
REMARK   52  A    between atoms: _117  and  _118
REMARK   53  A    between atoms: _118  and  _119
REMARK   54  A    between atoms: _123  and  _125
REMARK   55  A    between atoms: _125  and  _126
REMARK   56  A    between atoms: _125  and  _128
REMARK   57  A    between atoms: _128  and  _129
REMARK   58  A    between atoms: _132  and  _134
REMARK   59  A    between atoms: _134  and  _135
REMARK   60  A    between atoms: _134  and  _137
REMARK   61  A    between atoms: _137  and  _138
REMARK   62  A    between atoms: _140  and  _142
REMARK   63  A    between atoms: _142  and  _143
REMARK   64  A    between atoms: _142  and  _145
REMARK   65  A    between atoms: _145  and  _146
REMARK   66  A    between atoms: _146  and  _256
REMARK   67  A    between atoms: _147  and  _149
REMARK   68  A    between atoms: _149  and  _150
REMARK   69  A    between atoms: _149  and  _152
REMARK   70  A    between atoms: _152  and  _153
REMARK   71  A    between atoms: _153  and  _154
REMARK   72  A    between atoms: _159  and  _161
REMARK   73  A    between atoms: _161  and  _162
REMARK   74  A    between atoms: _164  and  _166
REMARK   75  A    between atoms: _166  and  _167
REMARK   76  A    between atoms: _166  and  _169
REMARK   77  A    between atoms: _169  and  _170
REMARK   78  A    between atoms: _173  and  _175
REMARK   79  A    between atoms: _175  and  _176
REMARK   80  A    between atoms: _175  and  _178
REMARK   81  A    between atoms: _178  and  _179
REMARK   82  A    between atoms: _181  and  _183
REMARK   83  A    between atoms: _183  and  _184
REMARK   84  A    between atoms: _186  and  _188
REMARK   85  A    between atoms: _188  and  _189
REMARK   86  A    between atoms: _191  and  _193
REMARK   87  A    between atoms: _193  and  _194
REMARK   88  A    between atoms: _193  and  _196
REMARK   89  A    between atoms: _196  and  _197
REMARK   90  A    between atoms: _200  and  _202
REMARK   91  A    between atoms: _202  and  _203
REMARK   92  A    between atoms: _202  and  _205
REMARK   93  A    between atoms: _208  and  _210
REMARK   94  A    between atoms: _210  and  _211
REMARK   95  A    between atoms: _210  and  _213
REMARK   96  A    between atoms: _213  and  _214
REMARK   97  A    between atoms: _216  and  _218
REMARK   98  A    between atoms: _218  and  _219
REMARK   99  A    between atoms: _218  and  _221
REMARK  100  A    between atoms: _221  and  _222
REMARK  101  A    between atoms: _232  and  _234
REMARK  102  A    between atoms: _234  and  _235
REMARK  103  A    between atoms: _237  and  _239
REMARK  104  A    between atoms: _239  and  _240
REMARK  105  A    between atoms: _239  and  _242
REMARK  106  A    between atoms: _242  and  _243
REMARK  107  A    between atoms: _245  and  _247
REMARK  108  A    between atoms: _247  and  _248
REMARK  109  A    between atoms: _250  and  _252
REMARK  110  A    between atoms: _252  and  _253
REMARK  111  A    between atoms: _252  and  _255
REMARK  112  A    between atoms: _255  and  _256
REMARK  113  A    between atoms: _257  and  _259
REMARK  114  A    between atoms: _259  and  _260
REMARK  115  A    between atoms: _263  and  _265
REMARK  116  A    between atoms: _265  and  _266
REMARK  117  A    between atoms: _265  and  _268
REMARK  118  A    between atoms: _268  and  _269
REMARK  119  A    between atoms: _269  and  _270
REMARK  120  A    between atoms: _275  and  _277
REMARK  121  A    between atoms: _277  and  _278
REMARK  122  A    between atoms: _277  and  _280
REMARK  123  A    between atoms: _280  and  _281
REMARK  124  A    between atoms: _281  and  _282
REMARK  125  A    between atoms: _282  and  _283
REMARK  126  A    between atoms: _283  and  _284
REMARK  127  A    between atoms: _289  and  _290
REMARK  128  A    between atoms: _295  and  _297
REMARK  129  A    between atoms: _297  and  _298
REMARK  130  A    between atoms: _300  and  _302
REMARK  131  A    between atoms: _302  and  _303
REMARK  132  A    between atoms: _302  and  _305
REMARK  133  A    between atoms: _308  and  _310
REMARK  134  A    between atoms: _310  and  _311
REMARK  135  A    between atoms: _310  and  _313
REMARK  136  A    between atoms: _313  and  _314
REMARK  137  A    between atoms: _319  and  _320
REMARK                            x       y       z     vdW  Elec       q    Type
REMARK                         _______ _______ _______ _____ _____    ______ ____
ROOT
ATOM      1  O   HOH     1      48.354  18.285  59.051  0.00  0.00    +0.000 OA
ENDROOT
TORSDOF 0
REMARK  Name = ../refined-set-2016/1c5t/1c5t_pocket.pdb
REMARK  137 active torsions:
REMARK  status: ('A' for Active; 'I' for Inactive)
REMARK    1  A    between atoms: _1  and  _3
REMARK    2  A    between atoms: _3  and  _4
REMARK    3  A    between atoms: _3  and  _6
REMARK    4  A    between atoms: _9  and  _11
REMARK    5  A    between atoms: _11  and  _12
REMARK    6  A    between atoms: _11  and  _14
REMARK    7  A    between atoms: _14  and  _15
REMARK    8  A    between atoms: _15  and  _39
REMARK    9  A    between atoms: _16  and  _18
REMARK   10  A    between atoms: _18  and  _19
REMARK   11  A    between atoms: _22  and  _24
REMARK   12  A    between atoms: _24  and  _25
REMARK   13  A    between atoms: _24  and  _27
REMARK   14  A    between atoms: _27  and  _28
REMARK   15  A    between atoms: _33  and  _35
REMARK   16  A    between atoms: _35  and  _36
REMARK   17  A    between atoms: _35  and  _38
REMARK   18  A    between atoms: _38  and  _39
REMARK   19  A    between atoms: _40  and  _42
REMARK   20  A    between atoms: _42  and  _43
REMARK   21  A    between atoms: _42  and  _45
REMARK   22  A    between atoms: _45  and  _46
REMARK   23  A    between atoms: _49  and  _51
REMARK   24  A    between atoms: _51  and  _52
REMARK   25  A    between atoms: _51  and  _54
REMARK   26  A    between atoms: _54  and  _55
REMARK   27  A    between atoms: _58  and  _60
REMARK   28  A    between atoms: _60  and  _61
REMARK   29  A    between atoms: _60  and  _63
REMARK   30  A    between atoms: _63  and  _64
REMARK   31  A    between atoms: _67  and  _69
REMARK   32  A    between atoms: _69  and  _70
REMARK   33  A    between atoms: _69  and  _72
REMARK   34  A    between atoms: _72  and  _73
REMARK   35  A    between atoms: _78  and  _79
REMARK   36  A    between atoms: _81  and  _83
REMARK   37  A    between atoms: _83  and  _84
REMARK   38  A    between atoms: _83  and  _86
REMARK   39  A    between atoms: _86  and  _87
REMARK   40  A    between atoms: _90  and  _92
REMARK   41  A    between atoms: _92  and  _93
REMARK   42  A    between atoms: _92  and  _95
REMARK   43  A    between atoms: _95  and  _96
REMARK   44  A    between atoms: _101  and  _102
REMARK   45  A    between atoms: _104  and  _106
REMARK   46  A    between atoms: _106  and  _107
REMARK   47  A    between atoms: _110  and  _112
REMARK   48  A    between atoms: _112  and  _113
REMARK   49  A    between atoms: _112  and  _115
REMARK   50  A    between atoms: _115  and  _116
REMARK   51  A    between atoms: _116  and  _117
REMARK   52  A    between atoms: _117  and  _118
REMARK   53  A    between atoms: _118  and  _119
REMARK   54  A    between atoms: _123  and  _125
REMARK   55  A    between atoms: _125  and  _126
REMARK   56  A    between atoms: _125  and  _128
REMARK   57  A    between atoms: _128  and  _129
REMARK   58  A    between atoms: _132  and  _134
REMARK   59  A    between atoms: _134  and  _135
REMARK   60  A    between atoms: _134  and  _137
REMARK   61  A    between atoms: _137  and  _138
REMARK   62  A    between atoms: _140  and  _142
REMARK   63  A    between atoms: _142  and  _143
REMARK   64  A    between atoms: _142  and  _145
REMARK   65  A    between atoms: _145  and  _146
REMARK   66  A    between atoms: _146  and  _256
REMARK   67  A    between atoms: _147  and  _149
REMARK   68  A    between atoms: _149  and  _150
REMARK   69  A    between atoms: _149  and  _152
REMARK   70  A    between atoms: _152  and  _153
REMARK   71  A    between atoms: _153  and  _154
REMARK   72  A    between atoms: _159  and  _161
REMARK   73  A    between atoms: _161  and  _162
REMARK   74  A    between atoms: _164  and  _166
REMARK   75  A    between atoms: _166  and  _167
REMARK   76  A    between atoms: _166  and  _169
REMARK   77  A    between atoms: _169  and  _170
REMARK   78  A    between atoms: _173  and  _175
REMARK   79  A    between atoms: _175  and  _176
REMARK   80  A    between atoms: _175  and  _178
REMARK   81  A    between atoms: _178  and  _179
REMARK   82  A    between atoms: _181  and  _183
REMARK   83  A    between atoms: _183  and  _184
REMARK   84  A    between atoms: _186  and  _188
REMARK   85  A    between atoms: _188  and  _189
REMARK   86  A    between atoms: _191  and  _193
REMARK   87  A    between atoms: _193  and  _194
REMARK   88  A    between atoms: _193  and  _196
REMARK   89  A    between atoms: _196  and  _197
REMARK   90  A    between atoms: _200  and  _202
REMARK   91  A    between atoms: _202  and  _203
REMARK   92  A    between atoms: _202  and  _205
REMARK   93  A    between atoms: _208  and  _210
REMARK   94  A    between atoms: _210  and  _211
REMARK   95  A    between atoms: _210  and  _213
REMARK   96  A    between atoms: _213  and  _214
REMARK   97  A    between atoms: _216  and  _218
REMARK   98  A    between atoms: _218  and  _219
REMARK   99  A    between atoms: _218  and  _221
REMARK  100  A    between atoms: _221  and  _222
REMARK  101  A    between atoms: _232  and  _234
REMARK  102  A    between atoms: _234  and  _235
REMARK  103  A    between atoms: _237  and  _239
REMARK  104  A    between atoms: _239  and  _240
REMARK  105  A    between atoms: _239  and  _242
REMARK  106  A    between atoms: _242  and  _243
REMARK  107  A    between atoms: _245  and  _247
REMARK  108  A    between atoms: _247  and  _248
REMARK  109  A    between atoms: _250  and  _252
REMARK  110  A    between atoms: _252  and  _253
REMARK  111  A    between atoms: _252  and  _255
REMARK  112  A    between atoms: _255  and  _256
REMARK  113  A    between atoms: _257  and  _259
REMARK  114  A    between atoms: _259  and  _260
REMARK  115  A    between atoms: _263  and  _265
REMARK  116  A    between atoms: _265  and  _266
REMARK  117  A    between atoms: _265  and  _268
REMARK  118  A    between atoms: _268  and  _269
REMARK  119  A    between atoms: _269  and  _270
REMARK  120  A    between atoms: _275  and  _277
REMARK  121  A    between atoms: _277  and  _278
REMARK  122  A    between atoms: _277  and  _280
REMARK  123  A    between atoms: _280  and  _281
REMARK  124  A    between atoms: _281  and  _282
REMARK  125  A    between atoms: _282  and  _283
REMARK  126  A    between atoms: _283  and  _284
REMARK  127  A    between atoms: _289  and  _290
REMARK  128  A    between atoms: _295  and  _297
REMARK  129  A    between atoms: _297  and  _298
REMARK  130  A    between atoms: _300  and  _302
REMARK  131  A    between atoms: _302  and  _303
REMARK  132  A    between atoms: _302  and  _305
REMARK  133  A    between atoms: _308  and  _310
REMARK  134  A    between atoms: _310  and  _311
REMARK  135  A    between atoms: _310  and  _313
REMARK  136  A    between atoms: _313  and  _314
REMARK  137  A    between atoms: _319  and  _320
REMARK                            x       y       z     vdW  Elec       q    Type
REMARK                         _______ _______ _______ _____ _____    ______ ____
ROOT
ATOM      1  O   HOH     1      48.446  14.773  59.235  0.00  0.00    +0.000 OA
ENDROOT
TORSDOF 0
REMARK  Name = ../refined-set-2016/1c5t/1c5t_pocket.pdb
REMARK  137 active torsions:
REMARK  status: ('A' for Active; 'I' for Inactive)
REMARK    1  A    between atoms: _1  and  _3
REMARK    2  A    between atoms: _3  and  _4
REMARK    3  A    between atoms: _3  and  _6
REMARK    4  A    between atoms: _9  and  _11
REMARK    5  A    between atoms: _11  and  _12
REMARK    6  A    between atoms: _11  and  _14
REMARK    7  A    between atoms: _14  and  _15
REMARK    8  A    between atoms: _15  and  _39
REMARK    9  A    between atoms: _16  and  _18
REMARK   10  A    between atoms: _18  and  _19
REMARK   11  A    between atoms: _22  and  _24
REMARK   12  A    between atoms: _24  and  _25
REMARK   13  A    between atoms: _24  and  _27
REMARK   14  A    between atoms: _27  and  _28
REMARK   15  A    between atoms: _33  and  _35
REMARK   16  A    between atoms: _35  and  _36
REMARK   17  A    between atoms: _35  and  _38
REMARK   18  A    between atoms: _38  and  _39
REMARK   19  A    between atoms: _40  and  _42
REMARK   20  A    between atoms: _42  and  _43
REMARK   21  A    between atoms: _42  and  _45
REMARK   22  A    between atoms: _45  and  _46
REMARK   23  A    between atoms: _49  and  _51
REMARK   24  A    between atoms: _51  and  _52
REMARK   25  A    between atoms: _51  and  _54
REMARK   26  A    between atoms: _54  and  _55
REMARK   27  A    between atoms: _58  and  _60
REMARK   28  A    between atoms: _60  and  _61
REMARK   29  A    between atoms: _60  and  _63
REMARK   30  A    between atoms: _63  and  _64
REMARK   31  A    between atoms: _67  and  _69
REMARK   32  A    between atoms: _69  and  _70
REMARK   33  A    between atoms: _69  and  _72
REMARK   34  A    between atoms: _72  and  _73
REMARK   35  A    between atoms: _78  and  _79
REMARK   36  A    between atoms: _81  and  _83
REMARK   37  A    between atoms: _83  and  _84
REMARK   38  A    between atoms: _83  and  _86
REMARK   39  A    between atoms: _86  and  _87
REMARK   40  A    between atoms: _90  and  _92
REMARK   41  A    between atoms: _92  and  _93
REMARK   42  A    between atoms: _92  and  _95
REMARK   43  A    between atoms: _95  and  _96
REMARK   44  A    between atoms: _101  and  _102
REMARK   45  A    between atoms: _104  and  _106
REMARK   46  A    between atoms: _106  and  _107
REMARK   47  A    between atoms: _110  and  _112
REMARK   48  A    between atoms: _112  and  _113
REMARK   49  A    between atoms: _112  and  _115
REMARK   50  A    between atoms: _115  and  _116
REMARK   51  A    between atoms: _116  and  _117
REMARK   52  A    between atoms: _117  and  _118
REMARK   53  A    between atoms: _118  and  _119
REMARK   54  A    between atoms: _123  and  _125
REMARK   55  A    between atoms: _125  and  _126
REMARK   56  A    between atoms: _125  and  _128
REMARK   57  A    between atoms: _128  and  _129
REMARK   58  A    between atoms: _132  and  _134
REMARK   59  A    between atoms: _134  and  _135
REMARK   60  A    between atoms: _134  and  _137
REMARK   61  A    between atoms: _137  and  _138
REMARK   62  A    between atoms: _140  and  _142
REMARK   63  A    between atoms: _142  and  _143
REMARK   64  A    between atoms: _142  and  _145
REMARK   65  A    between atoms: _145  and  _146
REMARK   66  A    between atoms: _146  and  _256
REMARK   67  A    between atoms: _147  and  _149
REMARK   68  A    between atoms: _149  and  _150
REMARK   69  A    between atoms: _149  and  _152
REMARK   70  A    between atoms: _152  and  _153
REMARK   71  A    between atoms: _153  and  _154
REMARK   72  A    between atoms: _159  and  _161
REMARK   73  A    between atoms: _161  and  _162
REMARK   74  A    between atoms: _164  and  _166
REMARK   75  A    between atoms: _166  and  _167
REMARK   76  A    between atoms: _166  and  _169
REMARK   77  A    between atoms: _169  and  _170
REMARK   78  A    between atoms: _173  and  _175
REMARK   79  A    between atoms: _175  and  _176
REMARK   80  A    between atoms: _175  and  _178
REMARK   81  A    between atoms: _178  and  _179
REMARK   82  A    between atoms: _181  and  _183
REMARK   83  A    between atoms: _183  and  _184
REMARK   84  A    between atoms: _186  and  _188
REMARK   85  A    between atoms: _188  and  _189
REMARK   86  A    between atoms: _191  and  _193
REMARK   87  A    between atoms: _193  and  _194
REMARK   88  A    between atoms: _193  and  _196
REMARK   89  A    between atoms: _196  and  _197
REMARK   90  A    between atoms: _200  and  _202
REMARK   91  A    between atoms: _202  and  _203
REMARK   92  A    between atoms: _202  and  _205
REMARK   93  A    between atoms: _208  and  _210
REMARK   94  A    between atoms: _210  and  _211
REMARK   95  A    between atoms: _210  and  _213
REMARK   96  A    between atoms: _213  and  _214
REMARK   97  A    between atoms: _216  and  _218
REMARK   98  A    between atoms: _218  and  _219
REMARK   99  A    between atoms: _218  and  _221
REMARK  100  A    between atoms: _221  and  _222
REMARK  101  A    between atoms: _232  and  _234
REMARK  102  A    between atoms: _234  and  _235
REMARK  103  A    between atoms: _237  and  _239
REMARK  104  A    between atoms: _239  and  _240
REMARK  105  A    between atoms: _239  and  _242
REMARK  106  A    between atoms: _242  and  _243
REMARK  107  A    between atoms: _245  and  _247
REMARK  108  A    between atoms: _247  and  _248
REMARK  109  A    between atoms: _250  and  _252
REMARK  110  A    between atoms: _252  and  _253
REMARK  111  A    between atoms: _252  and  _255
REMARK  112  A    between atoms: _255  and  _256
REMARK  113  A    between atoms: _257  and  _259
REMARK  114  A    between atoms: _259  and  _260
REMARK  115  A    between atoms: _263  and  _265
REMARK  116  A    between atoms: _265  and  _266
REMARK  117  A    between atoms: _265  and  _268
REMARK  118  A    between atoms: _268  and  _269
REMARK  119  A    between atoms: _269  and  _270
REMARK  120  A    between atoms: _275  and  _277
REMARK  121  A    between atoms: _277  and  _278
REMARK  122  A    between atoms: _277  and  _280
REMARK  123  A    between atoms: _280  and  _281
REMARK  124  A    between atoms: _281  and  _282
REMARK  125  A    between atoms: _282  and  _283
REMARK  126  A    between atoms: _283  and  _284
REMARK  127  A    between atoms: _289  and  _290
REMARK  128  A    between atoms: _295  and  _297
REMARK  129  A    between atoms: _297  and  _298
REMARK  130  A    between atoms: _300  and  _302
REMARK  131  A    between atoms: _302  and  _303
REMARK  132  A    between atoms: _302  and  _305
REMARK  133  A    between atoms: _308  and  _310
REMARK  134  A    between atoms: _310  and  _311
REMARK  135  A    between atoms: _310  and  _313
REMARK  136  A    between atoms: _313  and  _314
REMARK  137  A    between atoms: _319  and  _320
REMARK                            x       y       z     vdW  Elec       q    Type
REMARK                         _______ _______ _______ _____ _____    ______ ____
ROOT
ATOM      1  O   HOH     1      45.730  12.396  55.038  0.00  0.00    +0.000 OA
ENDROOT
TORSDOF 0
REMARK  Name = ../refined-set-2016/1c5t/1c5t_pocket.pdb
REMARK  137 active torsions:
REMARK  status: ('A' for Active; 'I' for Inactive)
REMARK    1  A    between atoms: _1  and  _3
REMARK    2  A    between atoms: _3  and  _4
REMARK    3  A    between atoms: _3  and  _6
REMARK    4  A    between atoms: _9  and  _11
REMARK    5  A    between atoms: _11  and  _12
REMARK    6  A    between atoms: _11  and  _14
REMARK    7  A    between atoms: _14  and  _15
REMARK    8  A    between atoms: _15  and  _39
REMARK    9  A    between atoms: _16  and  _18
REMARK   10  A    between atoms: _18  and  _19
REMARK   11  A    between atoms: _22  and  _24
REMARK   12  A    between atoms: _24  and  _25
REMARK   13  A    between atoms: _24  and  _27
REMARK   14  A    between atoms: _27  and  _28
REMARK   15  A    between atoms: _33  and  _35
REMARK   16  A    between atoms: _35  and  _36
REMARK   17  A    between atoms: _35  and  _38
REMARK   18  A    between atoms: _38  and  _39
REMARK   19  A    between atoms: _40  and  _42
REMARK   20  A    between atoms: _42  and  _43
REMARK   21  A    between atoms: _42  and  _45
REMARK   22  A    between atoms: _45  and  _46
REMARK   23  A    between atoms: _49  and  _51
REMARK   24  A    between atoms: _51  and  _52
REMARK   25  A    between atoms: _51  and  _54
REMARK   26  A    between atoms: _54  and  _55
REMARK   27  A    between atoms: _58  and  _60
REMARK   28  A    between atoms: _60  and  _61
REMARK   29  A    between atoms: _60  and  _63
REMARK   30  A    between atoms: _63  and  _64
REMARK   31  A    between atoms: _67  and  _69
REMARK   32  A    between atoms: _69  and  _70
REMARK   33  A    between atoms: _69  and  _72
REMARK   34  A    between atoms: _72  and  _73
REMARK   35  A    between atoms: _78  and  _79
REMARK   36  A    between atoms: _81  and  _83
REMARK   37  A    between atoms: _83  and  _84
REMARK   38  A    between atoms: _83  and  _86
REMARK   39  A    between atoms: _86  and  _87
REMARK   40  A    between atoms: _90  and  _92
REMARK   41  A    between atoms: _92  and  _93
REMARK   42  A    between atoms: _92  and  _95
REMARK   43  A    between atoms: _95  and  _96
REMARK   44  A    between atoms: _101  and  _102
REMARK   45  A    between atoms: _104  and  _106
REMARK   46  A    between atoms: _106  and  _107
REMARK   47  A    between atoms: _110  and  _112
REMARK   48  A    between atoms: _112  and  _113
REMARK   49  A    between atoms: _112  and  _115
REMARK   50  A    between atoms: _115  and  _116
REMARK   51  A    between atoms: _116  and  _117
REMARK   52  A    between atoms: _117  and  _118
REMARK   53  A    between atoms: _118  and  _119
REMARK   54  A    between atoms: _123  and  _125
REMARK   55  A    between atoms: _125  and  _126
REMARK   56  A    between atoms: _125  and  _128
REMARK   57  A    between atoms: _128  and  _129
REMARK   58  A    between atoms: _132  and  _134
REMARK   59  A    between atoms: _134  and  _135
REMARK   60  A    between atoms: _134  and  _137
REMARK   61  A    between atoms: _137  and  _138
REMARK   62  A    between atoms: _140  and  _142
REMARK   63  A    between atoms: _142  and  _143
REMARK   64  A    between atoms: _142  and  _145
REMARK   65  A    between atoms: _145  and  _146
REMARK   66  A    between atoms: _146  and  _256
REMARK   67  A    between atoms: _147  and  _149
REMARK   68  A    between atoms: _149  and  _150
REMARK   69  A    between atoms: _149  and  _152
REMARK   70  A    between atoms: _152  and  _153
REMARK   71  A    between atoms: _153  and  _154
REMARK   72  A    between atoms: _159  and  _161
REMARK   73  A    between atoms: _161  and  _162
REMARK   74  A    between atoms: _164  and  _166
REMARK   75  A    between atoms: _166  and  _167
REMARK   76  A    between atoms: _166  and  _169
REMARK   77  A    between atoms: _169  and  _170
REMARK   78  A    between atoms: _173  and  _175
REMARK   79  A    between atoms: _175  and  _176
REMARK   80  A    between atoms: _175  and  _178
REMARK   81  A    between atoms: _178  and  _179
REMARK   82  A    between atoms: _181  and  _183
REMARK   83  A    between atoms: _183  and  _184
REMARK   84  A    between atoms: _186  and  _188
REMARK   85  A    between atoms: _188  and  _189
REMARK   86  A    between atoms: _191  and  _193
REMARK   87  A    between atoms: _193  and  _194
REMARK   88  A    between atoms: _193  and  _196
REMARK   89  A    between atoms: _196  and  _197
REMARK   90  A    between atoms: _200  and  _202
REMARK   91  A    between atoms: _202  and  _203
REMARK   92  A    between atoms: _202  and  _205
REMARK   93  A    between atoms: _208  and  _210
REMARK   94  A    between atoms: _210  and  _211
REMARK   95  A    between atoms: _210  and  _213
REMARK   96  A    between atoms: _213  and  _214
REMARK   97  A    between atoms: _216  and  _218
REMARK   98  A    between atoms: _218  and  _219
REMARK   99  A    between atoms: _218  and  _221
REMARK  100  A    between atoms: _221  and  _222
REMARK  101  A    between atoms: _232  and  _234
REMARK  102  A    between atoms: _234  and  _235
REMARK  103  A    between atoms: _237  and  _239
REMARK  104  A    between atoms: _239  and  _240
REMARK  105  A    between atoms: _239  and  _242
REMARK  106  A    between atoms: _242  and  _243
REMARK  107  A    between atoms: _245  and  _247
REMARK  108  A    between atoms: _247  and  _248
REMARK  109  A    between atoms: _250  and  _252
REMARK  110  A    between atoms: _252  and  _253
REMARK  111  A    between atoms: _252  and  _255
REMARK  112  A    between atoms: _255  and  _256
REMARK  113  A    between atoms: _257  and  _259
REMARK  114  A    between atoms: _259  and  _260
REMARK  115  A    between atoms: _263  and  _265
REMARK  116  A    between atoms: _265  and  _266
REMARK  117  A    between atoms: _265  and  _268
REMARK  118  A    between atoms: _268  and  _269
REMARK  119  A    between atoms: _269  and  _270
REMARK  120  A    between atoms: _275  and  _277
REMARK  121  A    between atoms: _277  and  _278
REMARK  122  A    between atoms: _277  and  _280
REMARK  123  A    between atoms: _280  and  _281
REMARK  124  A    between atoms: _281  and  _282
REMARK  125  A    between atoms: _282  and  _283
REMARK  126  A    between atoms: _283  and  _284
REMARK  127  A    between atoms: _289  and  _290
REMARK  128  A    between atoms: _295  and  _297
REMARK  129  A    between atoms: _297  and  _298
REMARK  130  A    between atoms: _300  and  _302
REMARK  131  A    between atoms: _302  and  _303
REMARK  132  A    between atoms: _302  and  _305
REMARK  133  A    between atoms: _308  and  _310
REMARK  134  A    between atoms: _310  and  _311
REMARK  135  A    between atoms: _310  and  _313
REMARK  136  A    between atoms: _313  and  _314
REMARK  137  A    between atoms: _319  and  _320
REMARK                            x       y       z     vdW  Elec       q    Type
REMARK                         _______ _______ _______ _____ _____    ______ ____
ROOT
ATOM      1  O   HOH     1      47.718  12.357  58.088  0.00  0.00    +0.000 OA
ENDROOT
TORSDOF 0
REMARK  Name = ../refined-set-2016/1c5t/1c5t_pocket.pdb
REMARK  137 active torsions:
REMARK  status: ('A' for Active; 'I' for Inactive)
REMARK    1  A    between atoms: _1  and  _3
REMARK    2  A    between atoms: _3  and  _4
REMARK    3  A    between atoms: _3  and  _6
REMARK    4  A    between atoms: _9  and  _11
REMARK    5  A    between atoms: _11  and  _12
REMARK    6  A    between atoms: _11  and  _14
REMARK    7  A    between atoms: _14  and  _15
REMARK    8  A    between atoms: _15  and  _39
REMARK    9  A    between atoms: _16  and  _18
REMARK   10  A    between atoms: _18  and  _19
REMARK   11  A    between atoms: _22  and  _24
REMARK   12  A    between atoms: _24  and  _25
REMARK   13  A    between atoms: _24  and  _27
REMARK   14  A    between atoms: _27  and  _28
REMARK   15  A    between atoms: _33  and  _35
REMARK   16  A    between atoms: _35  and  _36
REMARK   17  A    between atoms: _35  and  _38
REMARK   18  A    between atoms: _38  and  _39
REMARK   19  A    between atoms: _40  and  _42
REMARK   20  A    between atoms: _42  and  _43
REMARK   21  A    between atoms: _42  and  _45
REMARK   22  A    between atoms: _45  and  _46
REMARK   23  A    between atoms: _49  and  _51
REMARK   24  A    between atoms: _51  and  _52
REMARK   25  A    between atoms: _51  and  _54
REMARK   26  A    between atoms: _54  and  _55
REMARK   27  A    between atoms: _58  and  _60
REMARK   28  A    between atoms: _60  and  _61
REMARK   29  A    between atoms: _60  and  _63
REMARK   30  A    between atoms: _63  and  _64
REMARK   31  A    between atoms: _67  and  _69
REMARK   32  A    between atoms: _69  and  _70
REMARK   33  A    between atoms: _69  and  _72
REMARK   34  A    between atoms: _72  and  _73
REMARK   35  A    between atoms: _78  and  _79
REMARK   36  A    between atoms: _81  and  _83
REMARK   37  A    between atoms: _83  and  _84
REMARK   38  A    between atoms: _83  and  _86
REMARK   39  A    between atoms: _86  and  _87
REMARK   40  A    between atoms: _90  and  _92
REMARK   41  A    between atoms: _92  and  _93
REMARK   42  A    between atoms: _92  and  _95
REMARK   43  A    between atoms: _95  and  _96
REMARK   44  A    between atoms: _101  and  _102
REMARK   45  A    between atoms: _104  and  _106
REMARK   46  A    between atoms: _106  and  _107
REMARK   47  A    between atoms: _110  and  _112
REMARK   48  A    between atoms: _112  and  _113
REMARK   49  A    between atoms: _112  and  _115
REMARK   50  A    between atoms: _115  and  _116
REMARK   51  A    between atoms: _116  and  _117
REMARK   52  A    between atoms: _117  and  _118
REMARK   53  A    between atoms: _118  and  _119
REMARK   54  A    between atoms: _123  and  _125
REMARK   55  A    between atoms: _125  and  _126
REMARK   56  A    between atoms: _125  and  _128
REMARK   57  A    between atoms: _128  and  _129
REMARK   58  A    between atoms: _132  and  _134
REMARK   59  A    between atoms: _134  and  _135
REMARK   60  A    between atoms: _134  and  _137
REMARK   61  A    between atoms: _137  and  _138
REMARK   62  A    between atoms: _140  and  _142
REMARK   63  A    between atoms: _142  and  _143
REMARK   64  A    between atoms: _142  and  _145
REMARK   65  A    between atoms: _145  and  _146
REMARK   66  A    between atoms: _146  and  _256
REMARK   67  A    between atoms: _147  and  _149
REMARK   68  A    between atoms: _149  and  _150
REMARK   69  A    between atoms: _149  and  _152
REMARK   70  A    between atoms: _152  and  _153
REMARK   71  A    between atoms: _153  and  _154
REMARK   72  A    between atoms: _159  and  _161
REMARK   73  A    between atoms: _161  and  _162
REMARK   74  A    between atoms: _164  and  _166
REMARK   75  A    between atoms: _166  and  _167
REMARK   76  A    between atoms: _166  and  _169
REMARK   77  A    between atoms: _169  and  _170
REMARK   78  A    between atoms: _173  and  _175
REMARK   79  A    between atoms: _175  and  _176
REMARK   80  A    between atoms: _175  and  _178
REMARK   81  A    between atoms: _178  and  _179
REMARK   82  A    between atoms: _181  and  _183
REMARK   83  A    between atoms: _183  and  _184
REMARK   84  A    between atoms: _186  and  _188
REMARK   85  A    between atoms: _188  and  _189
REMARK   86  A    between atoms: _191  and  _193
REMARK   87  A    between atoms: _193  and  _194
REMARK   88  A    between atoms: _193  and  _196
REMARK   89  A    between atoms: _196  and  _197
REMARK   90  A    between atoms: _200  and  _202
REMARK   91  A    between atoms: _202  and  _203
REMARK   92  A    between atoms: _202  and  _205
REMARK   93  A    between atoms: _208  and  _210
REMARK   94  A    between atoms: _210  and  _211
REMARK   95  A    between atoms: _210  and  _213
REMARK   96  A    between atoms: _213  and  _214
REMARK   97  A    between atoms: _216  and  _218
REMARK   98  A    between atoms: _218  and  _219
REMARK   99  A    between atoms: _218  and  _221
REMARK  100  A    between atoms: _221  and  _222
REMARK  101  A    between atoms: _232  and  _234
REMARK  102  A    between atoms: _234  and  _235
REMARK  103  A    between atoms: _237  and  _239
REMARK  104  A    between atoms: _239  and  _240
REMARK  105  A    between atoms: _239  and  _242
REMARK  106  A    between atoms: _242  and  _243
REMARK  107  A    between atoms: _245  and  _247
REMARK  108  A    between atoms: _247  and  _248
REMARK  109  A    between atoms: _250  and  _252
REMARK  110  A    between atoms: _252  and  _253
REMARK  111  A    between atoms: _252  and  _255
REMARK  112  A    between atoms: _255  and  _256
REMARK  113  A    between atoms: _257  and  _259
REMARK  114  A    between atoms: _259  and  _260
REMARK  115  A    between atoms: _263  and  _265
REMARK  116  A    between atoms: _265  and  _266
REMARK  117  A    between atoms: _265  and  _268
REMARK  118  A    between atoms: _268  and  _269
REMARK  119  A    between atoms: _269  and  _270
REMARK  120  A    between atoms: _275  and  _277
REMARK  121  A    between atoms: _277  and  _278
REMARK  122  A    between atoms: _277  and  _280
REMARK  123  A    between atoms: _280  and  _281
REMARK  124  A    between atoms: _281  and  _282
REMARK  125  A    between atoms: _282  and  _283
REMARK  126  A    between atoms: _283  and  _284
REMARK  127  A    between atoms: _289  and  _290
REMARK  128  A    between atoms: _295  and  _297
REMARK  129  A    between atoms: _297  and  _298
REMARK  130  A    between atoms: _300  and  _302
REMARK  131  A    between atoms: _302  and  _303
REMARK  132  A    between atoms: _302  and  _305
REMARK  133  A    between atoms: _308  and  _310
REMARK  134  A    between atoms: _310  and  _311
REMARK  135  A    between atoms: _310  and  _313
REMARK  136  A    between atoms: _313  and  _314
REMARK  137  A    between atoms: _319  and  _320
REMARK                            x       y       z     vdW  Elec       q    Type
REMARK                         _______ _______ _______ _____ _____    ______ ____
ROOT
ATOM      1  O   HOH     1      39.507  26.994  49.954  0.00  0.00    +0.000 OA
ENDROOT
TORSDOF 0
REMARK  Name = ../refined-set-2016/1c5t/1c5t_pocket.pdb
REMARK  137 active torsions:
REMARK  status: ('A' for Active; 'I' for Inactive)
REMARK    1  A    between atoms: _1  and  _3
REMARK    2  A    between atoms: _3  and  _4
REMARK    3  A    between atoms: _3  and  _6
REMARK    4  A    between atoms: _9  and  _11
REMARK    5  A    between atoms: _11  and  _12
REMARK    6  A    between atoms: _11  and  _14
REMARK    7  A    between atoms: _14  and  _15
REMARK    8  A    between atoms: _15  and  _39
REMARK    9  A    between atoms: _16  and  _18
REMARK   10  A    between atoms: _18  and  _19
REMARK   11  A    between atoms: _22  and  _24
REMARK   12  A    between atoms: _24  and  _25
REMARK   13  A    between atoms: _24  and  _27
REMARK   14  A    between atoms: _27  and  _28
REMARK   15  A    between atoms: _33  and  _35
REMARK   16  A    between atoms: _35  and  _36
REMARK   17  A    between atoms: _35  and  _38
REMARK   18  A    between atoms: _38  and  _39
REMARK   19  A    between atoms: _40  and  _42
REMARK   20  A    between atoms: _42  and  _43
REMARK   21  A    between atoms: _42  and  _45
REMARK   22  A    between atoms: _45  and  _46
REMARK   23  A    between atoms: _49  and  _51
REMARK   24  A    between atoms: _51  and  _52
REMARK   25  A    between atoms: _51  and  _54
REMARK   26  A    between atoms: _54  and  _55
REMARK   27  A    between atoms: _58  and  _60
REMARK   28  A    between atoms: _60  and  _61
REMARK   29  A    between atoms: _60  and  _63
REMARK   30  A    between atoms: _63  and  _64
REMARK   31  A    between atoms: _67  and  _69
REMARK   32  A    between atoms: _69  and  _70
REMARK   33  A    between atoms: _69  and  _72
REMARK   34  A    between atoms: _72  and  _73
REMARK   35  A    between atoms: _78  and  _79
REMARK   36  A    between atoms: _81  and  _83
REMARK   37  A    between atoms: _83  and  _84
REMARK   38  A    between atoms: _83  and  _86
REMARK   39  A    between atoms: _86  and  _87
REMARK   40  A    between atoms: _90  and  _92
REMARK   41  A    between atoms: _92  and  _93
REMARK   42  A    between atoms: _92  and  _95
REMARK   43  A    between atoms: _95  and  _96
REMARK   44  A    between atoms: _101  and  _102
REMARK   45  A    between atoms: _104  and  _106
REMARK   46  A    between atoms: _106  and  _107
REMARK   47  A    between atoms: _110  and  _112
REMARK   48  A    between atoms: _112  and  _113
REMARK   49  A    between atoms: _112  and  _115
REMARK   50  A    between atoms: _115  and  _116
REMARK   51  A    between atoms: _116  and  _117
REMARK   52  A    between atoms: _117  and  _118
REMARK   53  A    between atoms: _118  and  _119
REMARK   54  A    between atoms: _123  and  _125
REMARK   55  A    between atoms: _125  and  _126
REMARK   56  A    between atoms: _125  and  _128
REMARK   57  A    between atoms: _128  and  _129
REMARK   58  A    between atoms: _132  and  _134
REMARK   59  A    between atoms: _134  and  _135
REMARK   60  A    between atoms: _134  and  _137
REMARK   61  A    between atoms: _137  and  _138
REMARK   62  A    between atoms: _140  and  _142
REMARK   63  A    between atoms: _142  and  _143
REMARK   64  A    between atoms: _142  and  _145
REMARK   65  A    between atoms: _145  and  _146
REMARK   66  A    between atoms: _146  and  _256
REMARK   67  A    between atoms: _147  and  _149
REMARK   68  A    between atoms: _149  and  _150
REMARK   69  A    between atoms: _149  and  _152
REMARK   70  A    between atoms: _152  and  _153
REMARK   71  A    between atoms: _153  and  _154
REMARK   72  A    between atoms: _159  and  _161
REMARK   73  A    between atoms: _161  and  _162
REMARK   74  A    between atoms: _164  and  _166
REMARK   75  A    between atoms: _166  and  _167
REMARK   76  A    between atoms: _166  and  _169
REMARK   77  A    between atoms: _169  and  _170
REMARK   78  A    between atoms: _173  and  _175
REMARK   79  A    between atoms: _175  and  _176
REMARK   80  A    between atoms: _175  and  _178
REMARK   81  A    between atoms: _178  and  _179
REMARK   82  A    between atoms: _181  and  _183
REMARK   83  A    between atoms: _183  and  _184
REMARK   84  A    between atoms: _186  and  _188
REMARK   85  A    between atoms: _188  and  _189
REMARK   86  A    between atoms: _191  and  _193
REMARK   87  A    between atoms: _193  and  _194
REMARK   88  A    between atoms: _193  and  _196
REMARK   89  A    between atoms: _196  and  _197
REMARK   90  A    between atoms: _200  and  _202
REMARK   91  A    between atoms: _202  and  _203
REMARK   92  A    between atoms: _202  and  _205
REMARK   93  A    between atoms: _208  and  _210
REMARK   94  A    between atoms: _210  and  _211
REMARK   95  A    between atoms: _210  and  _213
REMARK   96  A    between atoms: _213  and  _214
REMARK   97  A    between atoms: _216  and  _218
REMARK   98  A    between atoms: _218  and  _219
REMARK   99  A    between atoms: _218  and  _221
REMARK  100  A    between atoms: _221  and  _222
REMARK  101  A    between atoms: _232  and  _234
REMARK  102  A    between atoms: _234  and  _235
REMARK  103  A    between atoms: _237  and  _239
REMARK  104  A    between atoms: _239  and  _240
REMARK  105  A    between atoms: _239  and  _242
REMARK  106  A    between atoms: _242  and  _243
REMARK  107  A    between atoms: _245  and  _247
REMARK  108  A    between atoms: _247  and  _248
REMARK  109  A    between atoms: _250  and  _252
REMARK  110  A    between atoms: _252  and  _253
REMARK  111  A    between atoms: _252  and  _255
REMARK  112  A    between atoms: _255  and  _256
REMARK  113  A    between atoms: _257  and  _259
REMARK  114  A    between atoms: _259  and  _260
REMARK  115  A    between atoms: _263  and  _265
REMARK  116  A    between atoms: _265  and  _266
REMARK  117  A    between atoms: _265  and  _268
REMARK  118  A    between atoms: _268  and  _269
REMARK  119  A    between atoms: _269  and  _270
REMARK  120  A    between atoms: _275  and  _277
REMARK  121  A    between atoms: _277  and  _278
REMARK  122  A    between atoms: _277  and  _280
REMARK  123  A    between atoms: _280  and  _281
REMARK  124  A    between atoms: _281  and  _282
REMARK  125  A    between atoms: _282  and  _283
REMARK  126  A    between atoms: _283  and  _284
REMARK  127  A    between atoms: _289  and  _290
REMARK  128  A    between atoms: _295  and  _297
REMARK  129  A    between atoms: _297  and  _298
REMARK  130  A    between atoms: _300  and  _302
REMARK  131  A    between atoms: _302  and  _303
REMARK  132  A    between atoms: _302  and  _305
REMARK  133  A    between atoms: _308  and  _310
REMARK  134  A    between atoms: _310  and  _311
REMARK  135  A    between atoms: _310  and  _313
REMARK  136  A    between atoms: _313  and  _314
REMARK  137  A    between atoms: _319  and  _320
REMARK                            x       y       z     vdW  Elec       q    Type
REMARK                         _______ _______ _______ _____ _____    ______ ____
ROOT
ATOM      1  O   HOH     1      52.374  22.310  57.987  0.00  0.00    +0.000 OA
ENDROOT
TORSDOF 0
REMARK  Name = ../refined-set-2016/1c5t/1c5t_pocket.pdb
REMARK  137 active torsions:
REMARK  status: ('A' for Active; 'I' for Inactive)
REMARK    1  A    between atoms: _1  and  _3
REMARK    2  A    between atoms: _3  and  _4
REMARK    3  A    between atoms: _3  and  _6
REMARK    4  A    between atoms: _9  and  _11
REMARK    5  A    between atoms: _11  and  _12
REMARK    6  A    between atoms: _11  and  _14
REMARK    7  A    between atoms: _14  and  _15
REMARK    8  A    between atoms: _15  and  _39
REMARK    9  A    between atoms: _16  and  _18
REMARK   10  A    between atoms: _18  and  _19
REMARK   11  A    between atoms: _22  and  _24
REMARK   12  A    between atoms: _24  and  _25
REMARK   13  A    between atoms: _24  and  _27
REMARK   14  A    between atoms: _27  and  _28
REMARK   15  A    between atoms: _33  and  _35
REMARK   16  A    between atoms: _35  and  _36
REMARK   17  A    between atoms: _35  and  _38
REMARK   18  A    between atoms: _38  and  _39
REMARK   19  A    between atoms: _40  and  _42
REMARK   20  A    between atoms: _42  and  _43
REMARK   21  A    between atoms: _42  and  _45
REMARK   22  A    between atoms: _45  and  _46
REMARK   23  A    between atoms: _49  and  _51
REMARK   24  A    between atoms: _51  and  _52
REMARK   25  A    between atoms: _51  and  _54
REMARK   26  A    between atoms: _54  and  _55
REMARK   27  A    between atoms: _58  and  _60
REMARK   28  A    between atoms: _60  and  _61
REMARK   29  A    between atoms: _60  and  _63
REMARK   30  A    between atoms: _63  and  _64
REMARK   31  A    between atoms: _67  and  _69
REMARK   32  A    between atoms: _69  and  _70
REMARK   33  A    between atoms: _69  and  _72
REMARK   34  A    between atoms: _72  and  _73
REMARK   35  A    between atoms: _78  and  _79
REMARK   36  A    between atoms: _81  and  _83
REMARK   37  A    between atoms: _83  and  _84
REMARK   38  A    between atoms: _83  and  _86
REMARK   39  A    between atoms: _86  and  _87
REMARK   40  A    between atoms: _90  and  _92
REMARK   41  A    between atoms: _92  and  _93
REMARK   42  A    between atoms: _92  and  _95
REMARK   43  A    between atoms: _95  and  _96
REMARK   44  A    between atoms: _101  and  _102
REMARK   45  A    between atoms: _104  and  _106
REMARK   46  A    between atoms: _106  and  _107
REMARK   47  A    between atoms: _110  and  _112
REMARK   48  A    between atoms: _112  and  _113
REMARK   49  A    between atoms: _112  and  _115
REMARK   50  A    between atoms: _115  and  _116
REMARK   51  A    between atoms: _116  and  _117
REMARK   52  A    between atoms: _117  and  _118
REMARK   53  A    between atoms: _118  and  _119
REMARK   54  A    between atoms: _123  and  _125
REMARK   55  A    between atoms: _125  and  _126
REMARK   56  A    between atoms: _125  and  _128
REMARK   57  A    between atoms: _128  and  _129
REMARK   58  A    between atoms: _132  and  _134
REMARK   59  A    between atoms: _134  and  _135
REMARK   60  A    between atoms: _134  and  _137
REMARK   61  A    between atoms: _137  and  _138
REMARK   62  A    between atoms: _140  and  _142
REMARK   63  A    between atoms: _142  and  _143
REMARK   64  A    between atoms: _142  and  _145
REMARK   65  A    between atoms: _145  and  _146
REMARK   66  A    between atoms: _146  and  _256
REMARK   67  A    between atoms: _147  and  _149
REMARK   68  A    between atoms: _149  and  _150
REMARK   69  A    between atoms: _149  and  _152
REMARK   70  A    between atoms: _152  and  _153
REMARK   71  A    between atoms: _153  and  _154
REMARK   72  A    between atoms: _159  and  _161
REMARK   73  A    between atoms: _161  and  _162
REMARK   74  A    between atoms: _164  and  _166
REMARK   75  A    between atoms: _166  and  _167
REMARK   76  A    between atoms: _166  and  _169
REMARK   77  A    between atoms: _169  and  _170
REMARK   78  A    between atoms: _173  and  _175
REMARK   79  A    between atoms: _175  and  _176
REMARK   80  A    between atoms: _175  and  _178
REMARK   81  A    between atoms: _178  and  _179
REMARK   82  A    between atoms: _181  and  _183
REMARK   83  A    between atoms: _183  and  _184
REMARK   84  A    between atoms: _186  and  _188
REMARK   85  A    between atoms: _188  and  _189
REMARK   86  A    between atoms: _191  and  _193
REMARK   87  A    between atoms: _193  and  _194
REMARK   88  A    between atoms: _193  and  _196
REMARK   89  A    between atoms: _196  and  _197
REMARK   90  A    between atoms: _200  and  _202
REMARK   91  A    between atoms: _202  and  _203
REMARK   92  A    between atoms: _202  and  _205
REMARK   93  A    between atoms: _208  and  _210
REMARK   94  A    between atoms: _210  and  _211
REMARK   95  A    between atoms: _210  and  _213
REMARK   96  A    between atoms: _213  and  _214
REMARK   97  A    between atoms: _216  and  _218
REMARK   98  A    between atoms: _218  and  _219
REMARK   99  A    between atoms: _218  and  _221
REMARK  100  A    between atoms: _221  and  _222
REMARK  101  A    between atoms: _232  and  _234
REMARK  102  A    between atoms: _234  and  _235
REMARK  103  A    between atoms: _237  and  _239
REMARK  104  A    between atoms: _239  and  _240
REMARK  105  A    between atoms: _239  and  _242
REMARK  106  A    between atoms: _242  and  _243
REMARK  107  A    between atoms: _245  and  _247
REMARK  108  A    between atoms: _247  and  _248
REMARK  109  A    between atoms: _250  and  _252
REMARK  110  A    between atoms: _252  and  _253
REMARK  111  A    between atoms: _252  and  _255
REMARK  112  A    between atoms: _255  and  _256
REMARK  113  A    between atoms: _257  and  _259
REMARK  114  A    between atoms: _259  and  _260
REMARK  115  A    between atoms: _263  and  _265
REMARK  116  A    between atoms: _265  and  _266
REMARK  117  A    between atoms: _265  and  _268
REMARK  118  A    between atoms: _268  and  _269
REMARK  119  A    between atoms: _269  and  _270
REMARK  120  A    between atoms: _275  and  _277
REMARK  121  A    between atoms: _277  and  _278
REMARK  122  A    between atoms: _277  and  _280
REMARK  123  A    between atoms: _280  and  _281
REMARK  124  A    between atoms: _281  and  _282
REMARK  125  A    between atoms: _282  and  _283
REMARK  126  A    between atoms: _283  and  _284
REMARK  127  A    between atoms: _289  and  _290
REMARK  128  A    between atoms: _295  and  _297
REMARK  129  A    between atoms: _297  and  _298
REMARK  130  A    between atoms: _300  and  _302
REMARK  131  A    between atoms: _302  and  _303
REMARK  132  A    between atoms: _302  and  _305
REMARK  133  A    between atoms: _308  and  _310
REMARK  134  A    between atoms: _310  and  _311
REMARK  135  A    between atoms: _310  and  _313
REMARK  136  A    between atoms: _313  and  _314
REMARK  137  A    between atoms: _319  and  _320
REMARK                            x       y       z     vdW  Elec       q    Type
REMARK                         _______ _______ _______ _____ _____    ______ ____
ROOT
ATOM      1  O   HOH     1      42.916  16.488  52.681  0.00  0.00    +0.000 OA
ENDROOT
TORSDOF 0
REMARK  Name = ../refined-set-2016/1c5t/1c5t_pocket.pdb
REMARK  137 active torsions:
REMARK  status: ('A' for Active; 'I' for Inactive)
REMARK    1  A    between atoms: _1  and  _3
REMARK    2  A    between atoms: _3  and  _4
REMARK    3  A    between atoms: _3  and  _6
REMARK    4  A    between atoms: _9  and  _11
REMARK    5  A    between atoms: _11  and  _12
REMARK    6  A    between atoms: _11  and  _14
REMARK    7  A    between atoms: _14  and  _15
REMARK    8  A    between atoms: _15  and  _39
REMARK    9  A    between atoms: _16  and  _18
REMARK   10  A    between atoms: _18  and  _19
REMARK   11  A    between atoms: _22  and  _24
REMARK   12  A    between atoms: _24  and  _25
REMARK   13  A    between atoms: _24  and  _27
REMARK   14  A    between atoms: _27  and  _28
REMARK   15  A    between atoms: _33  and  _35
REMARK   16  A    between atoms: _35  and  _36
REMARK   17  A    between atoms: _35  and  _38
REMARK   18  A    between atoms: _38  and  _39
REMARK   19  A    between atoms: _40  and  _42
REMARK   20  A    between atoms: _42  and  _43
REMARK   21  A    between atoms: _42  and  _45
REMARK   22  A    between atoms: _45  and  _46
REMARK   23  A    between atoms: _49  and  _51
REMARK   24  A    between atoms: _51  and  _52
REMARK   25  A    between atoms: _51  and  _54
REMARK   26  A    between atoms: _54  and  _55
REMARK   27  A    between atoms: _58  and  _60
REMARK   28  A    between atoms: _60  and  _61
REMARK   29  A    between atoms: _60  and  _63
REMARK   30  A    between atoms: _63  and  _64
REMARK   31  A    between atoms: _67  and  _69
REMARK   32  A    between atoms: _69  and  _70
REMARK   33  A    between atoms: _69  and  _72
REMARK   34  A    between atoms: _72  and  _73
REMARK   35  A    between atoms: _78  and  _79
REMARK   36  A    between atoms: _81  and  _83
REMARK   37  A    between atoms: _83  and  _84
REMARK   38  A    between atoms: _83  and  _86
REMARK   39  A    between atoms: _86  and  _87
REMARK   40  A    between atoms: _90  and  _92
REMARK   41  A    between atoms: _92  and  _93
REMARK   42  A    between atoms: _92  and  _95
REMARK   43  A    between atoms: _95  and  _96
REMARK   44  A    between atoms: _101  and  _102
REMARK   45  A    between atoms: _104  and  _106
REMARK   46  A    between atoms: _106  and  _107
REMARK   47  A    between atoms: _110  and  _112
REMARK   48  A    between atoms: _112  and  _113
REMARK   49  A    between atoms: _112  and  _115
REMARK   50  A    between atoms: _115  and  _116
REMARK   51  A    between atoms: _116  and  _117
REMARK   52  A    between atoms: _117  and  _118
REMARK   53  A    between atoms: _118  and  _119
REMARK   54  A    between atoms: _123  and  _125
REMARK   55  A    between atoms: _125  and  _126
REMARK   56  A    between atoms: _125  and  _128
REMARK   57  A    between atoms: _128  and  _129
REMARK   58  A    between atoms: _132  and  _134
REMARK   59  A    between atoms: _134  and  _135
REMARK   60  A    between atoms: _134  and  _137
REMARK   61  A    between atoms: _137  and  _138
REMARK   62  A    between atoms: _140  and  _142
REMARK   63  A    between atoms: _142  and  _143
REMARK   64  A    between atoms: _142  and  _145
REMARK   65  A    between atoms: _145  and  _146
REMARK   66  A    between atoms: _146  and  _256
REMARK   67  A    between atoms: _147  and  _149
REMARK   68  A    between atoms: _149  and  _150
REMARK   69  A    between atoms: _149  and  _152
REMARK   70  A    between atoms: _152  and  _153
REMARK   71  A    between atoms: _153  and  _154
REMARK   72  A    between atoms: _159  and  _161
REMARK   73  A    between atoms: _161  and  _162
REMARK   74  A    between atoms: _164  and  _166
REMARK   75  A    between atoms: _166  and  _167
REMARK   76  A    between atoms: _166  and  _169
REMARK   77  A    between atoms: _169  and  _170
REMARK   78  A    between atoms: _173  and  _175
REMARK   79  A    between atoms: _175  and  _176
REMARK   80  A    between atoms: _175  and  _178
REMARK   81  A    between atoms: _178  and  _179
REMARK   82  A    between atoms: _181  and  _183
REMARK   83  A    between atoms: _183  and  _184
REMARK   84  A    between atoms: _186  and  _188
REMARK   85  A    between atoms: _188  and  _189
REMARK   86  A    between atoms: _191  and  _193
REMARK   87  A    between atoms: _193  and  _194
REMARK   88  A    between atoms: _193  and  _196
REMARK   89  A    between atoms: _196  and  _197
REMARK   90  A    between atoms: _200  and  _202
REMARK   91  A    between atoms: _202  and  _203
REMARK   92  A    between atoms: _202  and  _205
REMARK   93  A    between atoms: _208  and  _210
REMARK   94  A    between atoms: _210  and  _211
REMARK   95  A    between atoms: _210  and  _213
REMARK   96  A    between atoms: _213  and  _214
REMARK   97  A    between atoms: _216  and  _218
REMARK   98  A    between atoms: _218  and  _219
REMARK   99  A    between atoms: _218  and  _221
REMARK  100  A    between atoms: _221  and  _222
REMARK  101  A    between atoms: _232  and  _234
REMARK  102  A    between atoms: _234  and  _235
REMARK  103  A    between atoms: _237  and  _239
REMARK  104  A    between atoms: _239  and  _240
REMARK  105  A    between atoms: _239  and  _242
REMARK  106  A    between atoms: _242  and  _243
REMARK  107  A    between atoms: _245  and  _247
REMARK  108  A    between atoms: _247  and  _248
REMARK  109  A    between atoms: _250  and  _252
REMARK  110  A    between atoms: _252  and  _253
REMARK  111  A    between atoms: _252  and  _255
REMARK  112  A    between atoms: _255  and  _256
REMARK  113  A    between atoms: _257  and  _259
REMARK  114  A    between atoms: _259  and  _260
REMARK  115  A    between atoms: _263  and  _265
REMARK  116  A    between atoms: _265  and  _266
REMARK  117  A    between atoms: _265  and  _268
REMARK  118  A    between atoms: _268  and  _269
REMARK  119  A    between atoms: _269  and  _270
REMARK  120  A    between atoms: _275  and  _277
REMARK  121  A    between atoms: _277  and  _278
REMARK  122  A    between atoms: _277  and  _280
REMARK  123  A    between atoms: _280  and  _281
REMARK  124  A    between atoms: _281  and  _282
REMARK  125  A    between atoms: _282  and  _283
REMARK  126  A    between atoms: _283  and  _284
REMARK  127  A    between atoms: _289  and  _290
REMARK  128  A    between atoms: _295  and  _297
REMARK  129  A    between atoms: _297  and  _298
REMARK  130  A    between atoms: _300  and  _302
REMARK  131  A    between atoms: _302  and  _303
REMARK  132  A    between atoms: _302  and  _305
REMARK  133  A    between atoms: _308  and  _310
REMARK  134  A    between atoms: _310  and  _311
REMARK  135  A    between atoms: _310  and  _313
REMARK  136  A    between atoms: _313  and  _314
REMARK  137  A    between atoms: _319  and  _320
REMARK                            x       y       z     vdW  Elec       q    Type
REMARK                         _______ _______ _______ _____ _____    ______ ____
ROOT
ATOM      1  O   HOH     1      41.108  30.088  49.789  0.00  0.00    +0.000 OA
ENDROOT
TORSDOF 0
REMARK  Name = ../refined-set-2016/1c5t/1c5t_pocket.pdb
REMARK  137 active torsions:
REMARK  status: ('A' for Active; 'I' for Inactive)
REMARK    1  A    between atoms: _1  and  _3
REMARK    2  A    between atoms: _3  and  _4
REMARK    3  A    between atoms: _3  and  _6
REMARK    4  A    between atoms: _9  and  _11
REMARK    5  A    between atoms: _11  and  _12
REMARK    6  A    between atoms: _11  and  _14
REMARK    7  A    between atoms: _14  and  _15
REMARK    8  A    between atoms: _15  and  _39
REMARK    9  A    between atoms: _16  and  _18
REMARK   10  A    between atoms: _18  and  _19
REMARK   11  A    between atoms: _22  and  _24
REMARK   12  A    between atoms: _24  and  _25
REMARK   13  A    between atoms: _24  and  _27
REMARK   14  A    between atoms: _27  and  _28
REMARK   15  A    between atoms: _33  and  _35
REMARK   16  A    between atoms: _35  and  _36
REMARK   17  A    between atoms: _35  and  _38
REMARK   18  A    between atoms: _38  and  _39
REMARK   19  A    between atoms: _40  and  _42
REMARK   20  A    between atoms: _42  and  _43
REMARK   21  A    between atoms: _42  and  _45
REMARK   22  A    between atoms: _45  and  _46
REMARK   23  A    between atoms: _49  and  _51
REMARK   24  A    between atoms: _51  and  _52
REMARK   25  A    between atoms: _51  and  _54
REMARK   26  A    between atoms: _54  and  _55
REMARK   27  A    between atoms: _58  and  _60
REMARK   28  A    between atoms: _60  and  _61
REMARK   29  A    between atoms: _60  and  _63
REMARK   30  A    between atoms: _63  and  _64
REMARK   31  A    between atoms: _67  and  _69
REMARK   32  A    between atoms: _69  and  _70
REMARK   33  A    between atoms: _69  and  _72
REMARK   34  A    between atoms: _72  and  _73
REMARK   35  A    between atoms: _78  and  _79
REMARK   36  A    between atoms: _81  and  _83
REMARK   37  A    between atoms: _83  and  _84
REMARK   38  A    between atoms: _83  and  _86
REMARK   39  A    between atoms: _86  and  _87
REMARK   40  A    between atoms: _90  and  _92
REMARK   41  A    between atoms: _92  and  _93
REMARK   42  A    between atoms: _92  and  _95
REMARK   43  A    between atoms: _95  and  _96
REMARK   44  A    between atoms: _101  and  _102
REMARK   45  A    between atoms: _104  and  _106
REMARK   46  A    between atoms: _106  and  _107
REMARK   47  A    between atoms: _110  and  _112
REMARK   48  A    between atoms: _112  and  _113
REMARK   49  A    between atoms: _112  and  _115
REMARK   50  A    between atoms: _115  and  _116
REMARK   51  A    between atoms: _116  and  _117
REMARK   52  A    between atoms: _117  and  _118
REMARK   53  A    between atoms: _118  and  _119
REMARK   54  A    between atoms: _123  and  _125
REMARK   55  A    between atoms: _125  and  _126
REMARK   56  A    between atoms: _125  and  _128
REMARK   57  A    between atoms: _128  and  _129
REMARK   58  A    between atoms: _132  and  _134
REMARK   59  A    between atoms: _134  and  _135
REMARK   60  A    between atoms: _134  and  _137
REMARK   61  A    between atoms: _137  and  _138
REMARK   62  A    between atoms: _140  and  _142
REMARK   63  A    between atoms: _142  and  _143
REMARK   64  A    between atoms: _142  and  _145
REMARK   65  A    between atoms: _145  and  _146
REMARK   66  A    between atoms: _146  and  _256
REMARK   67  A    between atoms: _147  and  _149
REMARK   68  A    between atoms: _149  and  _150
REMARK   69  A    between atoms: _149  and  _152
REMARK   70  A    between atoms: _152  and  _153
REMARK   71  A    between atoms: _153  and  _154
REMARK   72  A    between atoms: _159  and  _161
REMARK   73  A    between atoms: _161  and  _162
REMARK   74  A    between atoms: _164  and  _166
REMARK   75  A    between atoms: _166  and  _167
REMARK   76  A    between atoms: _166  and  _169
REMARK   77  A    between atoms: _169  and  _170
REMARK   78  A    between atoms: _173  and  _175
REMARK   79  A    between atoms: _175  and  _176
REMARK   80  A    between atoms: _175  and  _178
REMARK   81  A    between atoms: _178  and  _179
REMARK   82  A    between atoms: _181  and  _183
REMARK   83  A    between atoms: _183  and  _184
REMARK   84  A    between atoms: _186  and  _188
REMARK   85  A    between atoms: _188  and  _189
REMARK   86  A    between atoms: _191  and  _193
REMARK   87  A    between atoms: _193  and  _194
REMARK   88  A    between atoms: _193  and  _196
REMARK   89  A    between atoms: _196  and  _197
REMARK   90  A    between atoms: _200  and  _202
REMARK   91  A    between atoms: _202  and  _203
REMARK   92  A    between atoms: _202  and  _205
REMARK   93  A    between atoms: _208  and  _210
REMARK   94  A    between atoms: _210  and  _211
REMARK   95  A    between atoms: _210  and  _213
REMARK   96  A    between atoms: _213  and  _214
REMARK   97  A    between atoms: _216  and  _218
REMARK   98  A    between atoms: _218  and  _219
REMARK   99  A    between atoms: _218  and  _221
REMARK  100  A    between atoms: _221  and  _222
REMARK  101  A    between atoms: _232  and  _234
REMARK  102  A    between atoms: _234  and  _235
REMARK  103  A    between atoms: _237  and  _239
REMARK  104  A    between atoms: _239  and  _240
REMARK  105  A    between atoms: _239  and  _242
REMARK  106  A    between atoms: _242  and  _243
REMARK  107  A    between atoms: _245  and  _247
REMARK  108  A    between atoms: _247  and  _248
REMARK  109  A    between atoms: _250  and  _252
REMARK  110  A    between atoms: _252  and  _253
REMARK  111  A    between atoms: _252  and  _255
REMARK  112  A    between atoms: _255  and  _256
REMARK  113  A    between atoms: _257  and  _259
REMARK  114  A    between atoms: _259  and  _260
REMARK  115  A    between atoms: _263  and  _265
REMARK  116  A    between atoms: _265  and  _266
REMARK  117  A    between atoms: _265  and  _268
REMARK  118  A    between atoms: _268  and  _269
REMARK  119  A    between atoms: _269  and  _270
REMARK  120  A    between atoms: _275  and  _277
REMARK  121  A    between atoms: _277  and  _278
REMARK  122  A    between atoms: _277  and  _280
REMARK  123  A    between atoms: _280  and  _281
REMARK  124  A    between atoms: _281  and  _282
REMARK  125  A    between atoms: _282  and  _283
REMARK  126  A    between atoms: _283  and  _284
REMARK  127  A    between atoms: _289  and  _290
REMARK  128  A    between atoms: _295  and  _297
REMARK  129  A    between atoms: _297  and  _298
REMARK  130  A    between atoms: _300  and  _302
REMARK  131  A    between atoms: _302  and  _303
REMARK  132  A    between atoms: _302  and  _305
REMARK  133  A    between atoms: _308  and  _310
REMARK  134  A    between atoms: _310  and  _311
REMARK  135  A    between atoms: _310  and  _313
REMARK  136  A    between atoms: _313  and  _314
REMARK  137  A    between atoms: _319  and  _320
REMARK                            x       y       z     vdW  Elec       q    Type
REMARK                         _______ _______ _______ _____ _____    ______ ____
ROOT
ATOM      1  O   HOH     1      41.222  23.746  50.950  0.00  0.00    +0.000 OA
ENDROOT
TORSDOF 0
REMARK  Name = ../refined-set-2016/1c5t/1c5t_pocket.pdb
REMARK  137 active torsions:
REMARK  status: ('A' for Active; 'I' for Inactive)
REMARK    1  A    between atoms: _1  and  _3
REMARK    2  A    between atoms: _3  and  _4
REMARK    3  A    between atoms: _3  and  _6
REMARK    4  A    between atoms: _9  and  _11
REMARK    5  A    between atoms: _11  and  _12
REMARK    6  A    between atoms: _11  and  _14
REMARK    7  A    between atoms: _14  and  _15
REMARK    8  A    between atoms: _15  and  _39
REMARK    9  A    between atoms: _16  and  _18
REMARK   10  A    between atoms: _18  and  _19
REMARK   11  A    between atoms: _22  and  _24
REMARK   12  A    between atoms: _24  and  _25
REMARK   13  A    between atoms: _24  and  _27
REMARK   14  A    between atoms: _27  and  _28
REMARK   15  A    between atoms: _33  and  _35
REMARK   16  A    between atoms: _35  and  _36
REMARK   17  A    between atoms: _35  and  _38
REMARK   18  A    between atoms: _38  and  _39
REMARK   19  A    between atoms: _40  and  _42
REMARK   20  A    between atoms: _42  and  _43
REMARK   21  A    between atoms: _42  and  _45
REMARK   22  A    between atoms: _45  and  _46
REMARK   23  A    between atoms: _49  and  _51
REMARK   24  A    between atoms: _51  and  _52
REMARK   25  A    between atoms: _51  and  _54
REMARK   26  A    between atoms: _54  and  _55
REMARK   27  A    between atoms: _58  and  _60
REMARK   28  A    between atoms: _60  and  _61
REMARK   29  A    between atoms: _60  and  _63
REMARK   30  A    between atoms: _63  and  _64
REMARK   31  A    between atoms: _67  and  _69
REMARK   32  A    between atoms: _69  and  _70
REMARK   33  A    between atoms: _69  and  _72
REMARK   34  A    between atoms: _72  and  _73
REMARK   35  A    between atoms: _78  and  _79
REMARK   36  A    between atoms: _81  and  _83
REMARK   37  A    between atoms: _83  and  _84
REMARK   38  A    between atoms: _83  and  _86
REMARK   39  A    between atoms: _86  and  _87
REMARK   40  A    between atoms: _90  and  _92
REMARK   41  A    between atoms: _92  and  _93
REMARK   42  A    between atoms: _92  and  _95
REMARK   43  A    between atoms: _95  and  _96
REMARK   44  A    between atoms: _101  and  _102
REMARK   45  A    between atoms: _104  and  _106
REMARK   46  A    between atoms: _106  and  _107
REMARK   47  A    between atoms: _110  and  _112
REMARK   48  A    between atoms: _112  and  _113
REMARK   49  A    between atoms: _112  and  _115
REMARK   50  A    between atoms: _115  and  _116
REMARK   51  A    between atoms: _116  and  _117
REMARK   52  A    between atoms: _117  and  _118
REMARK   53  A    between atoms: _118  and  _119
REMARK   54  A    between atoms: _123  and  _125
REMARK   55  A    between atoms: _125  and  _126
REMARK   56  A    between atoms: _125  and  _128
REMARK   57  A    between atoms: _128  and  _129
REMARK   58  A    between atoms: _132  and  _134
REMARK   59  A    between atoms: _134  and  _135
REMARK   60  A    between atoms: _134  and  _137
REMARK   61  A    between atoms: _137  and  _138
REMARK   62  A    between atoms: _140  and  _142
REMARK   63  A    between atoms: _142  and  _143
REMARK   64  A    between atoms: _142  and  _145
REMARK   65  A    between atoms: _145  and  _146
REMARK   66  A    between atoms: _146  and  _256
REMARK   67  A    between atoms: _147  and  _149
REMARK   68  A    between atoms: _149  and  _150
REMARK   69  A    between atoms: _149  and  _152
REMARK   70  A    between atoms: _152  and  _153
REMARK   71  A    between atoms: _153  and  _154
REMARK   72  A    between atoms: _159  and  _161
REMARK   73  A    between atoms: _161  and  _162
REMARK   74  A    between atoms: _164  and  _166
REMARK   75  A    between atoms: _166  and  _167
REMARK   76  A    between atoms: _166  and  _169
REMARK   77  A    between atoms: _169  and  _170
REMARK   78  A    between atoms: _173  and  _175
REMARK   79  A    between atoms: _175  and  _176
REMARK   80  A    between atoms: _175  and  _178
REMARK   81  A    between atoms: _178  and  _179
REMARK   82  A    between atoms: _181  and  _183
REMARK   83  A    between atoms: _183  and  _184
REMARK   84  A    between atoms: _186  and  _188
REMARK   85  A    between atoms: _188  and  _189
REMARK   86  A    between atoms: _191  and  _193
REMARK   87  A    between atoms: _193  and  _194
REMARK   88  A    between atoms: _193  and  _196
REMARK   89  A    between atoms: _196  and  _197
REMARK   90  A    between atoms: _200  and  _202
REMARK   91  A    between atoms: _202  and  _203
REMARK   92  A    between atoms: _202  and  _205
REMARK   93  A    between atoms: _208  and  _210
REMARK   94  A    between atoms: _210  and  _211
REMARK   95  A    between atoms: _210  and  _213
REMARK   96  A    between atoms: _213  and  _214
REMARK   97  A    between atoms: _216  and  _218
REMARK   98  A    between atoms: _218  and  _219
REMARK   99  A    between atoms: _218  and  _221
REMARK  100  A    between atoms: _221  and  _222
REMARK  101  A    between atoms: _232  and  _234
REMARK  102  A    between atoms: _234  and  _235
REMARK  103  A    between atoms: _237  and  _239
REMARK  104  A    between atoms: _239  and  _240
REMARK  105  A    between atoms: _239  and  _242
REMARK  106  A    between atoms: _242  and  _243
REMARK  107  A    between atoms: _245  and  _247
REMARK  108  A    between atoms: _247  and  _248
REMARK  109  A    between atoms: _250  and  _252
REMARK  110  A    between atoms: _252  and  _253
REMARK  111  A    between atoms: _252  and  _255
REMARK  112  A    between atoms: _255  and  _256
REMARK  113  A    between atoms: _257  and  _259
REMARK  114  A    between atoms: _259  and  _260
REMARK  115  A    between atoms: _263  and  _265
REMARK  116  A    between atoms: _265  and  _266
REMARK  117  A    between atoms: _265  and  _268
REMARK  118  A    between atoms: _268  and  _269
REMARK  119  A    between atoms: _269  and  _270
REMARK  120  A    between atoms: _275  and  _277
REMARK  121  A    between atoms: _277  and  _278
REMARK  122  A    between atoms: _277  and  _280
REMARK  123  A    between atoms: _280  and  _281
REMARK  124  A    between atoms: _281  and  _282
REMARK  125  A    between atoms: _282  and  _283
REMARK  126  A    between atoms: _283  and  _284
REMARK  127  A    between atoms: _289  and  _290
REMARK  128  A    between atoms: _295  and  _297
REMARK  129  A    between atoms: _297  and  _298
REMARK  130  A    between atoms: _300  and  _302
REMARK  131  A    between atoms: _302  and  _303
REMARK  132  A    between atoms: _302  and  _305
REMARK  133  A    between atoms: _308  and  _310
REMARK  134  A    between atoms: _310  and  _311
REMARK  135  A    between atoms: _310  and  _313
REMARK  136  A    between atoms: _313  and  _314
REMARK  137  A    between atoms: _319  and  _320
REMARK                            x       y       z     vdW  Elec       q    Type
REMARK                         _______ _______ _______ _____ _____    ______ ____
ROOT
ATOM      1  O   HOH     1      48.822  26.069  57.842  0.00  0.00    +0.000 OA
ENDROOT
TORSDOF 0
REMARK  Name = ../refined-set-2016/1c5t/1c5t_pocket.pdb
REMARK  137 active torsions:
REMARK  status: ('A' for Active; 'I' for Inactive)
REMARK    1  A    between atoms: _1  and  _3
REMARK    2  A    between atoms: _3  and  _4
REMARK    3  A    between atoms: _3  and  _6
REMARK    4  A    between atoms: _9  and  _11
REMARK    5  A    between atoms: _11  and  _12
REMARK    6  A    between atoms: _11  and  _14
REMARK    7  A    between atoms: _14  and  _15
REMARK    8  A    between atoms: _15  and  _39
REMARK    9  A    between atoms: _16  and  _18
REMARK   10  A    between atoms: _18  and  _19
REMARK   11  A    between atoms: _22  and  _24
REMARK   12  A    between atoms: _24  and  _25
REMARK   13  A    between atoms: _24  and  _27
REMARK   14  A    between atoms: _27  and  _28
REMARK   15  A    between atoms: _33  and  _35
REMARK   16  A    between atoms: _35  and  _36
REMARK   17  A    between atoms: _35  and  _38
REMARK   18  A    between atoms: _38  and  _39
REMARK   19  A    between atoms: _40  and  _42
REMARK   20  A    between atoms: _42  and  _43
REMARK   21  A    between atoms: _42  and  _45
REMARK   22  A    between atoms: _45  and  _46
REMARK   23  A    between atoms: _49  and  _51
REMARK   24  A    between atoms: _51  and  _52
REMARK   25  A    between atoms: _51  and  _54
REMARK   26  A    between atoms: _54  and  _55
REMARK   27  A    between atoms: _58  and  _60
REMARK   28  A    between atoms: _60  and  _61
REMARK   29  A    between atoms: _60  and  _63
REMARK   30  A    between atoms: _63  and  _64
REMARK   31  A    between atoms: _67  and  _69
REMARK   32  A    between atoms: _69  and  _70
REMARK   33  A    between atoms: _69  and  _72
REMARK   34  A    between atoms: _72  and  _73
REMARK   35  A    between atoms: _78  and  _79
REMARK   36  A    between atoms: _81  and  _83
REMARK   37  A    between atoms: _83  and  _84
REMARK   38  A    between atoms: _83  and  _86
REMARK   39  A    between atoms: _86  and  _87
REMARK   40  A    between atoms: _90  and  _92
REMARK   41  A    between atoms: _92  and  _93
REMARK   42  A    between atoms: _92  and  _95
REMARK   43  A    between atoms: _95  and  _96
REMARK   44  A    between atoms: _101  and  _102
REMARK   45  A    between atoms: _104  and  _106
REMARK   46  A    between atoms: _106  and  _107
REMARK   47  A    between atoms: _110  and  _112
REMARK   48  A    between atoms: _112  and  _113
REMARK   49  A    between atoms: _112  and  _115
REMARK   50  A    between atoms: _115  and  _116
REMARK   51  A    between atoms: _116  and  _117
REMARK   52  A    between atoms: _117  and  _118
REMARK   53  A    between atoms: _118  and  _119
REMARK   54  A    between atoms: _123  and  _125
REMARK   55  A    between atoms: _125  and  _126
REMARK   56  A    between atoms: _125  and  _128
REMARK   57  A    between atoms: _128  and  _129
REMARK   58  A    between atoms: _132  and  _134
REMARK   59  A    between atoms: _134  and  _135
REMARK   60  A    between atoms: _134  and  _137
REMARK   61  A    between atoms: _137  and  _138
REMARK   62  A    between atoms: _140  and  _142
REMARK   63  A    between atoms: _142  and  _143
REMARK   64  A    between atoms: _142  and  _145
REMARK   65  A    between atoms: _145  and  _146
REMARK   66  A    between atoms: _146  and  _256
REMARK   67  A    between atoms: _147  and  _149
REMARK   68  A    between atoms: _149  and  _150
REMARK   69  A    between atoms: _149  and  _152
REMARK   70  A    between atoms: _152  and  _153
REMARK   71  A    between atoms: _153  and  _154
REMARK   72  A    between atoms: _159  and  _161
REMARK   73  A    between atoms: _161  and  _162
REMARK   74  A    between atoms: _164  and  _166
REMARK   75  A    between atoms: _166  and  _167
REMARK   76  A    between atoms: _166  and  _169
REMARK   77  A    between atoms: _169  and  _170
REMARK   78  A    between atoms: _173  and  _175
REMARK   79  A    between atoms: _175  and  _176
REMARK   80  A    between atoms: _175  and  _178
REMARK   81  A    between atoms: _178  and  _179
REMARK   82  A    between atoms: _181  and  _183
REMARK   83  A    between atoms: _183  and  _184
REMARK   84  A    between atoms: _186  and  _188
REMARK   85  A    between atoms: _188  and  _189
REMARK   86  A    between atoms: _191  and  _193
REMARK   87  A    between atoms: _193  and  _194
REMARK   88  A    between atoms: _193  and  _196
REMARK   89  A    between atoms: _196  and  _197
REMARK   90  A    between atoms: _200  and  _202
REMARK   91  A    between atoms: _202  and  _203
REMARK   92  A    between atoms: _202  and  _205
REMARK   93  A    between atoms: _208  and  _210
REMARK   94  A    between atoms: _210  and  _211
REMARK   95  A    between atoms: _210  and  _213
REMARK   96  A    between atoms: _213  and  _214
REMARK   97  A    between atoms: _216  and  _218
REMARK   98  A    between atoms: _218  and  _219
REMARK   99  A    between atoms: _218  and  _221
REMARK  100  A    between atoms: _221  and  _222
REMARK  101  A    between atoms: _232  and  _234
REMARK  102  A    between atoms: _234  and  _235
REMARK  103  A    between atoms: _237  and  _239
REMARK  104  A    between atoms: _239  and  _240
REMARK  105  A    between atoms: _239  and  _242
REMARK  106  A    between atoms: _242  and  _243
REMARK  107  A    between atoms: _245  and  _247
REMARK  108  A    between atoms: _247  and  _248
REMARK  109  A    between atoms: _250  and  _252
REMARK  110  A    between atoms: _252  and  _253
REMARK  111  A    between atoms: _252  and  _255
REMARK  112  A    between atoms: _255  and  _256
REMARK  113  A    between atoms: _257  and  _259
REMARK  114  A    between atoms: _259  and  _260
REMARK  115  A    between atoms: _263  and  _265
REMARK  116  A    between atoms: _265  and  _266
REMARK  117  A    between atoms: _265  and  _268
REMARK  118  A    between atoms: _268  and  _269
REMARK  119  A    between atoms: _269  and  _270
REMARK  120  A    between atoms: _275  and  _277
REMARK  121  A    between atoms: _277  and  _278
REMARK  122  A    between atoms: _277  and  _280
REMARK  123  A    between atoms: _280  and  _281
REMARK  124  A    between atoms: _281  and  _282
REMARK  125  A    between atoms: _282  and  _283
REMARK  126  A    between atoms: _283  and  _284
REMARK  127  A    between atoms: _289  and  _290
REMARK  128  A    between atoms: _295  and  _297
REMARK  129  A    between atoms: _297  and  _298
REMARK  130  A    between atoms: _300  and  _302
REMARK  131  A    between atoms: _302  and  _303
REMARK  132  A    between atoms: _302  and  _305
REMARK  133  A    between atoms: _308  and  _310
REMARK  134  A    between atoms: _310  and  _311
REMARK  135  A    between atoms: _310  and  _313
REMARK  136  A    between atoms: _313  and  _314
REMARK  137  A    between atoms: _319  and  _320
REMARK                            x       y       z     vdW  Elec       q    Type
REMARK                         _______ _______ _______ _____ _____    ______ ____
ROOT
ATOM      1  O   HOH     1      45.646  18.041  57.916  0.00  0.00    +0.000 OA
ENDROOT
TORSDOF 0
REMARK  Name = ../refined-set-2016/1c5t/1c5t_pocket.pdb
REMARK  137 active torsions:
REMARK  status: ('A' for Active; 'I' for Inactive)
REMARK    1  A    between atoms: _1  and  _3
REMARK    2  A    between atoms: _3  and  _4
REMARK    3  A    between atoms: _3  and  _6
REMARK    4  A    between atoms: _9  and  _11
REMARK    5  A    between atoms: _11  and  _12
REMARK    6  A    between atoms: _11  and  _14
REMARK    7  A    between atoms: _14  and  _15
REMARK    8  A    between atoms: _15  and  _39
REMARK    9  A    between atoms: _16  and  _18
REMARK   10  A    between atoms: _18  and  _19
REMARK   11  A    between atoms: _22  and  _24
REMARK   12  A    between atoms: _24  and  _25
REMARK   13  A    between atoms: _24  and  _27
REMARK   14  A    between atoms: _27  and  _28
REMARK   15  A    between atoms: _33  and  _35
REMARK   16  A    between atoms: _35  and  _36
REMARK   17  A    between atoms: _35  and  _38
REMARK   18  A    between atoms: _38  and  _39
REMARK   19  A    between atoms: _40  and  _42
REMARK   20  A    between atoms: _42  and  _43
REMARK   21  A    between atoms: _42  and  _45
REMARK   22  A    between atoms: _45  and  _46
REMARK   23  A    between atoms: _49  and  _51
REMARK   24  A    between atoms: _51  and  _52
REMARK   25  A    between atoms: _51  and  _54
REMARK   26  A    between atoms: _54  and  _55
REMARK   27  A    between atoms: _58  and  _60
REMARK   28  A    between atoms: _60  and  _61
REMARK   29  A    between atoms: _60  and  _63
REMARK   30  A    between atoms: _63  and  _64
REMARK   31  A    between atoms: _67  and  _69
REMARK   32  A    between atoms: _69  and  _70
REMARK   33  A    between atoms: _69  and  _72
REMARK   34  A    between atoms: _72  and  _73
REMARK   35  A    between atoms: _78  and  _79
REMARK   36  A    between atoms: _81  and  _83
REMARK   37  A    between atoms: _83  and  _84
REMARK   38  A    between atoms: _83  and  _86
REMARK   39  A    between atoms: _86  and  _87
REMARK   40  A    between atoms: _90  and  _92
REMARK   41  A    between atoms: _92  and  _93
REMARK   42  A    between atoms: _92  and  _95
REMARK   43  A    between atoms: _95  and  _96
REMARK   44  A    between atoms: _101  and  _102
REMARK   45  A    between atoms: _104  and  _106
REMARK   46  A    between atoms: _106  and  _107
REMARK   47  A    between atoms: _110  and  _112
REMARK   48  A    between atoms: _112  and  _113
REMARK   49  A    between atoms: _112  and  _115
REMARK   50  A    between atoms: _115  and  _116
REMARK   51  A    between atoms: _116  and  _117
REMARK   52  A    between atoms: _117  and  _118
REMARK   53  A    between atoms: _118  and  _119
REMARK   54  A    between atoms: _123  and  _125
REMARK   55  A    between atoms: _125  and  _126
REMARK   56  A    between atoms: _125  and  _128
REMARK   57  A    between atoms: _128  and  _129
REMARK   58  A    between atoms: _132  and  _134
REMARK   59  A    between atoms: _134  and  _135
REMARK   60  A    between atoms: _134  and  _137
REMARK   61  A    between atoms: _137  and  _138
REMARK   62  A    between atoms: _140  and  _142
REMARK   63  A    between atoms: _142  and  _143
REMARK   64  A    between atoms: _142  and  _145
REMARK   65  A    between atoms: _145  and  _146
REMARK   66  A    between atoms: _146  and  _256
REMARK   67  A    between atoms: _147  and  _149
REMARK   68  A    between atoms: _149  and  _150
REMARK   69  A    between atoms: _149  and  _152
REMARK   70  A    between atoms: _152  and  _153
REMARK   71  A    between atoms: _153  and  _154
REMARK   72  A    between atoms: _159  and  _161
REMARK   73  A    between atoms: _161  and  _162
REMARK   74  A    between atoms: _164  and  _166
REMARK   75  A    between atoms: _166  and  _167
REMARK   76  A    between atoms: _166  and  _169
REMARK   77  A    between atoms: _169  and  _170
REMARK   78  A    between atoms: _173  and  _175
REMARK   79  A    between atoms: _175  and  _176
REMARK   80  A    between atoms: _175  and  _178
REMARK   81  A    between atoms: _178  and  _179
REMARK   82  A    between atoms: _181  and  _183
REMARK   83  A    between atoms: _183  and  _184
REMARK   84  A    between atoms: _186  and  _188
REMARK   85  A    between atoms: _188  and  _189
REMARK   86  A    between atoms: _191  and  _193
REMARK   87  A    between atoms: _193  and  _194
REMARK   88  A    between atoms: _193  and  _196
REMARK   89  A    between atoms: _196  and  _197
REMARK   90  A    between atoms: _200  and  _202
REMARK   91  A    between atoms: _202  and  _203
REMARK   92  A    between atoms: _202  and  _205
REMARK   93  A    between atoms: _208  and  _210
REMARK   94  A    between atoms: _210  and  _211
REMARK   95  A    between atoms: _210  and  _213
REMARK   96  A    between atoms: _213  and  _214
REMARK   97  A    between atoms: _216  and  _218
REMARK   98  A    between atoms: _218  and  _219
REMARK   99  A    between atoms: _218  and  _221
REMARK  100  A    between atoms: _221  and  _222
REMARK  101  A    between atoms: _232  and  _234
REMARK  102  A    between atoms: _234  and  _235
REMARK  103  A    between atoms: _237  and  _239
REMARK  104  A    between atoms: _239  and  _240
REMARK  105  A    between atoms: _239  and  _242
REMARK  106  A    between atoms: _242  and  _243
REMARK  107  A    between atoms: _245  and  _247
REMARK  108  A    between atoms: _247  and  _248
REMARK  109  A    between atoms: _250  and  _252
REMARK  110  A    between atoms: _252  and  _253
REMARK  111  A    between atoms: _252  and  _255
REMARK  112  A    between atoms: _255  and  _256
REMARK  113  A    between atoms: _257  and  _259
REMARK  114  A    between atoms: _259  and  _260
REMARK  115  A    between atoms: _263  and  _265
REMARK  116  A    between atoms: _265  and  _266
REMARK  117  A    between atoms: _265  and  _268
REMARK  118  A    between atoms: _268  and  _269
REMARK  119  A    between atoms: _269  and  _270
REMARK  120  A    between atoms: _275  and  _277
REMARK  121  A    between atoms: _277  and  _278
REMARK  122  A    between atoms: _277  and  _280
REMARK  123  A    between atoms: _280  and  _281
REMARK  124  A    between atoms: _281  and  _282
REMARK  125  A    between atoms: _282  and  _283
REMARK  126  A    between atoms: _283  and  _284
REMARK  127  A    between atoms: _289  and  _290
REMARK  128  A    between atoms: _295  and  _297
REMARK  129  A    between atoms: _297  and  _298
REMARK  130  A    between atoms: _300  and  _302
REMARK  131  A    between atoms: _302  and  _303
REMARK  132  A    between atoms: _302  and  _305
REMARK  133  A    between atoms: _308  and  _310
REMARK  134  A    between atoms: _310  and  _311
REMARK  135  A    between atoms: _310  and  _313
REMARK  136  A    between atoms: _313  and  _314
REMARK  137  A    between atoms: _319  and  _320
REMARK                            x       y       z     vdW  Elec       q    Type
REMARK                         _______ _______ _______ _____ _____    ______ ____
ROOT
ATOM      1  O   HOH     1      44.119  24.921  56.571  0.00  0.00    +0.000 OA
ENDROOT
TORSDOF 0
REMARK  Name = ../refined-set-2016/1c5t/1c5t_pocket.pdb
REMARK  137 active torsions:
REMARK  status: ('A' for Active; 'I' for Inactive)
REMARK    1  A    between atoms: _1  and  _3
REMARK    2  A    between atoms: _3  and  _4
REMARK    3  A    between atoms: _3  and  _6
REMARK    4  A    between atoms: _9  and  _11
REMARK    5  A    between atoms: _11  and  _12
REMARK    6  A    between atoms: _11  and  _14
REMARK    7  A    between atoms: _14  and  _15
REMARK    8  A    between atoms: _15  and  _39
REMARK    9  A    between atoms: _16  and  _18
REMARK   10  A    between atoms: _18  and  _19
REMARK   11  A    between atoms: _22  and  _24
REMARK   12  A    between atoms: _24  and  _25
REMARK   13  A    between atoms: _24  and  _27
REMARK   14  A    between atoms: _27  and  _28
REMARK   15  A    between atoms: _33  and  _35
REMARK   16  A    between atoms: _35  and  _36
REMARK   17  A    between atoms: _35  and  _38
REMARK   18  A    between atoms: _38  and  _39
REMARK   19  A    between atoms: _40  and  _42
REMARK   20  A    between atoms: _42  and  _43
REMARK   21  A    between atoms: _42  and  _45
REMARK   22  A    between atoms: _45  and  _46
REMARK   23  A    between atoms: _49  and  _51
REMARK   24  A    between atoms: _51  and  _52
REMARK   25  A    between atoms: _51  and  _54
REMARK   26  A    between atoms: _54  and  _55
REMARK   27  A    between atoms: _58  and  _60
REMARK   28  A    between atoms: _60  and  _61
REMARK   29  A    between atoms: _60  and  _63
REMARK   30  A    between atoms: _63  and  _64
REMARK   31  A    between atoms: _67  and  _69
REMARK   32  A    between atoms: _69  and  _70
REMARK   33  A    between atoms: _69  and  _72
REMARK   34  A    between atoms: _72  and  _73
REMARK   35  A    between atoms: _78  and  _79
REMARK   36  A    between atoms: _81  and  _83
REMARK   37  A    between atoms: _83  and  _84
REMARK   38  A    between atoms: _83  and  _86
REMARK   39  A    between atoms: _86  and  _87
REMARK   40  A    between atoms: _90  and  _92
REMARK   41  A    between atoms: _92  and  _93
REMARK   42  A    between atoms: _92  and  _95
REMARK   43  A    between atoms: _95  and  _96
REMARK   44  A    between atoms: _101  and  _102
REMARK   45  A    between atoms: _104  and  _106
REMARK   46  A    between atoms: _106  and  _107
REMARK   47  A    between atoms: _110  and  _112
REMARK   48  A    between atoms: _112  and  _113
REMARK   49  A    between atoms: _112  and  _115
REMARK   50  A    between atoms: _115  and  _116
REMARK   51  A    between atoms: _116  and  _117
REMARK   52  A    between atoms: _117  and  _118
REMARK   53  A    between atoms: _118  and  _119
REMARK   54  A    between atoms: _123  and  _125
REMARK   55  A    between atoms: _125  and  _126
REMARK   56  A    between atoms: _125  and  _128
REMARK   57  A    between atoms: _128  and  _129
REMARK   58  A    between atoms: _132  and  _134
REMARK   59  A    between atoms: _134  and  _135
REMARK   60  A    between atoms: _134  and  _137
REMARK   61  A    between atoms: _137  and  _138
REMARK   62  A    between atoms: _140  and  _142
REMARK   63  A    between atoms: _142  and  _143
REMARK   64  A    between atoms: _142  and  _145
REMARK   65  A    between atoms: _145  and  _146
REMARK   66  A    between atoms: _146  and  _256
REMARK   67  A    between atoms: _147  and  _149
REMARK   68  A    between atoms: _149  and  _150
REMARK   69  A    between atoms: _149  and  _152
REMARK   70  A    between atoms: _152  and  _153
REMARK   71  A    between atoms: _153  and  _154
REMARK   72  A    between atoms: _159  and  _161
REMARK   73  A    between atoms: _161  and  _162
REMARK   74  A    between atoms: _164  and  _166
REMARK   75  A    between atoms: _166  and  _167
REMARK   76  A    between atoms: _166  and  _169
REMARK   77  A    between atoms: _169  and  _170
REMARK   78  A    between atoms: _173  and  _175
REMARK   79  A    between atoms: _175  and  _176
REMARK   80  A    between atoms: _175  and  _178
REMARK   81  A    between atoms: _178  and  _179
REMARK   82  A    between atoms: _181  and  _183
REMARK   83  A    between atoms: _183  and  _184
REMARK   84  A    between atoms: _186  and  _188
REMARK   85  A    between atoms: _188  and  _189
REMARK   86  A    between atoms: _191  and  _193
REMARK   87  A    between atoms: _193  and  _194
REMARK   88  A    between atoms: _193  and  _196
REMARK   89  A    between atoms: _196  and  _197
REMARK   90  A    between atoms: _200  and  _202
REMARK   91  A    between atoms: _202  and  _203
REMARK   92  A    between atoms: _202  and  _205
REMARK   93  A    between atoms: _208  and  _210
REMARK   94  A    between atoms: _210  and  _211
REMARK   95  A    between atoms: _210  and  _213
REMARK   96  A    between atoms: _213  and  _214
REMARK   97  A    between atoms: _216  and  _218
REMARK   98  A    between atoms: _218  and  _219
REMARK   99  A    between atoms: _218  and  _221
REMARK  100  A    between atoms: _221  and  _222
REMARK  101  A    between atoms: _232  and  _234
REMARK  102  A    between atoms: _234  and  _235
REMARK  103  A    between atoms: _237  and  _239
REMARK  104  A    between atoms: _239  and  _240
REMARK  105  A    between atoms: _239  and  _242
REMARK  106  A    between atoms: _242  and  _243
REMARK  107  A    between atoms: _245  and  _247
REMARK  108  A    between atoms: _247  and  _248
REMARK  109  A    between atoms: _250  and  _252
REMARK  110  A    between atoms: _252  and  _253
REMARK  111  A    between atoms: _252  and  _255
REMARK  112  A    between atoms: _255  and  _256
REMARK  113  A    between atoms: _257  and  _259
REMARK  114  A    between atoms: _259  and  _260
REMARK  115  A    between atoms: _263  and  _265
REMARK  116  A    between atoms: _265  and  _266
REMARK  117  A    between atoms: _265  and  _268
REMARK  118  A    between atoms: _268  and  _269
REMARK  119  A    between atoms: _269  and  _270
REMARK  120  A    between atoms: _275  and  _277
REMARK  121  A    between atoms: _277  and  _278
REMARK  122  A    between atoms: _277  and  _280
REMARK  123  A    between atoms: _280  and  _281
REMARK  124  A    between atoms: _281  and  _282
REMARK  125  A    between atoms: _282  and  _283
REMARK  126  A    between atoms: _283  and  _284
REMARK  127  A    between atoms: _289  and  _290
REMARK  128  A    between atoms: _295  and  _297
REMARK  129  A    between atoms: _297  and  _298
REMARK  130  A    between atoms: _300  and  _302
REMARK  131  A    between atoms: _302  and  _303
REMARK  132  A    between atoms: _302  and  _305
REMARK  133  A    between atoms: _308  and  _310
REMARK  134  A    between atoms: _310  and  _311
REMARK  135  A    between atoms: _310  and  _313
REMARK  136  A    between atoms: _313  and  _314
REMARK  137  A    between atoms: _319  and  _320
REMARK                            x       y       z     vdW  Elec       q    Type
REMARK                         _______ _______ _______ _____ _____    ______ ____
ROOT
ATOM      1  O   HOH     1      45.202  25.005  43.962  0.00  0.00    +0.000 OA
ENDROOT
TORSDOF 0
REMARK  Name = ../refined-set-2016/1c5t/1c5t_pocket.pdb
REMARK  137 active torsions:
REMARK  status: ('A' for Active; 'I' for Inactive)
REMARK    1  A    between atoms: _1  and  _3
REMARK    2  A    between atoms: _3  and  _4
REMARK    3  A    between atoms: _3  and  _6
REMARK    4  A    between atoms: _9  and  _11
REMARK    5  A    between atoms: _11  and  _12
REMARK    6  A    between atoms: _11  and  _14
REMARK    7  A    between atoms: _14  and  _15
REMARK    8  A    between atoms: _15  and  _39
REMARK    9  A    between atoms: _16  and  _18
REMARK   10  A    between atoms: _18  and  _19
REMARK   11  A    between atoms: _22  and  _24
REMARK   12  A    between atoms: _24  and  _25
REMARK   13  A    between atoms: _24  and  _27
REMARK   14  A    between atoms: _27  and  _28
REMARK   15  A    between atoms: _33  and  _35
REMARK   16  A    between atoms: _35  and  _36
REMARK   17  A    between atoms: _35  and  _38
REMARK   18  A    between atoms: _38  and  _39
REMARK   19  A    between atoms: _40  and  _42
REMARK   20  A    between atoms: _42  and  _43
REMARK   21  A    between atoms: _42  and  _45
REMARK   22  A    between atoms: _45  and  _46
REMARK   23  A    between atoms: _49  and  _51
REMARK   24  A    between atoms: _51  and  _52
REMARK   25  A    between atoms: _51  and  _54
REMARK   26  A    between atoms: _54  and  _55
REMARK   27  A    between atoms: _58  and  _60
REMARK   28  A    between atoms: _60  and  _61
REMARK   29  A    between atoms: _60  and  _63
REMARK   30  A    between atoms: _63  and  _64
REMARK   31  A    between atoms: _67  and  _69
REMARK   32  A    between atoms: _69  and  _70
REMARK   33  A    between atoms: _69  and  _72
REMARK   34  A    between atoms: _72  and  _73
REMARK   35  A    between atoms: _78  and  _79
REMARK   36  A    between atoms: _81  and  _83
REMARK   37  A    between atoms: _83  and  _84
REMARK   38  A    between atoms: _83  and  _86
REMARK   39  A    between atoms: _86  and  _87
REMARK   40  A    between atoms: _90  and  _92
REMARK   41  A    between atoms: _92  and  _93
REMARK   42  A    between atoms: _92  and  _95
REMARK   43  A    between atoms: _95  and  _96
REMARK   44  A    between atoms: _101  and  _102
REMARK   45  A    between atoms: _104  and  _106
REMARK   46  A    between atoms: _106  and  _107
REMARK   47  A    between atoms: _110  and  _112
REMARK   48  A    between atoms: _112  and  _113
REMARK   49  A    between atoms: _112  and  _115
REMARK   50  A    between atoms: _115  and  _116
REMARK   51  A    between atoms: _116  and  _117
REMARK   52  A    between atoms: _117  and  _118
REMARK   53  A    between atoms: _118  and  _119
REMARK   54  A    between atoms: _123  and  _125
REMARK   55  A    between atoms: _125  and  _126
REMARK   56  A    between atoms: _125  and  _128
REMARK   57  A    between atoms: _128  and  _129
REMARK   58  A    between atoms: _132  and  _134
REMARK   59  A    between atoms: _134  and  _135
REMARK   60  A    between atoms: _134  and  _137
REMARK   61  A    between atoms: _137  and  _138
REMARK   62  A    between atoms: _140  and  _142
REMARK   63  A    between atoms: _142  and  _143
REMARK   64  A    between atoms: _142  and  _145
REMARK   65  A    between atoms: _145  and  _146
REMARK   66  A    between atoms: _146  and  _256
REMARK   67  A    between atoms: _147  and  _149
REMARK   68  A    between atoms: _149  and  _150
REMARK   69  A    between atoms: _149  and  _152
REMARK   70  A    between atoms: _152  and  _153
REMARK   71  A    between atoms: _153  and  _154
REMARK   72  A    between atoms: _159  and  _161
REMARK   73  A    between atoms: _161  and  _162
REMARK   74  A    between atoms: _164  and  _166
REMARK   75  A    between atoms: _166  and  _167
REMARK   76  A    between atoms: _166  and  _169
REMARK   77  A    between atoms: _169  and  _170
REMARK   78  A    between atoms: _173  and  _175
REMARK   79  A    between atoms: _175  and  _176
REMARK   80  A    between atoms: _175  and  _178
REMARK   81  A    between atoms: _178  and  _179
REMARK   82  A    between atoms: _181  and  _183
REMARK   83  A    between atoms: _183  and  _184
REMARK   84  A    between atoms: _186  and  _188
REMARK   85  A    between atoms: _188  and  _189
REMARK   86  A    between atoms: _191  and  _193
REMARK   87  A    between atoms: _193  and  _194
REMARK   88  A    between atoms: _193  and  _196
REMARK   89  A    between atoms: _196  and  _197
REMARK   90  A    between atoms: _200  and  _202
REMARK   91  A    between atoms: _202  and  _203
REMARK   92  A    between atoms: _202  and  _205
REMARK   93  A    between atoms: _208  and  _210
REMARK   94  A    between atoms: _210  and  _211
REMARK   95  A    between atoms: _210  and  _213
REMARK   96  A    between atoms: _213  and  _214
REMARK   97  A    between atoms: _216  and  _218
REMARK   98  A    between atoms: _218  and  _219
REMARK   99  A    between atoms: _218  and  _221
REMARK  100  A    between atoms: _221  and  _222
REMARK  101  A    between atoms: _232  and  _234
REMARK  102  A    between atoms: _234  and  _235
REMARK  103  A    between atoms: _237  and  _239
REMARK  104  A    between atoms: _239  and  _240
REMARK  105  A    between atoms: _239  and  _242
REMARK  106  A    between atoms: _242  and  _243
REMARK  107  A    between atoms: _245  and  _247
REMARK  108  A    between atoms: _247  and  _248
REMARK  109  A    between atoms: _250  and  _252
REMARK  110  A    between atoms: _252  and  _253
REMARK  111  A    between atoms: _252  and  _255
REMARK  112  A    between atoms: _255  and  _256
REMARK  113  A    between atoms: _257  and  _259
REMARK  114  A    between atoms: _259  and  _260
REMARK  115  A    between atoms: _263  and  _265
REMARK  116  A    between atoms: _265  and  _266
REMARK  117  A    between atoms: _265  and  _268
REMARK  118  A    between atoms: _268  and  _269
REMARK  119  A    between atoms: _269  and  _270
REMARK  120  A    between atoms: _275  and  _277
REMARK  121  A    between atoms: _277  and  _278
REMARK  122  A    between atoms: _277  and  _280
REMARK  123  A    between atoms: _280  and  _281
REMARK  124  A    between atoms: _281  and  _282
REMARK  125  A    between atoms: _282  and  _283
REMARK  126  A    between atoms: _283  and  _284
REMARK  127  A    between atoms: _289  and  _290
REMARK  128  A    between atoms: _295  and  _297
REMARK  129  A    between atoms: _297  and  _298
REMARK  130  A    between atoms: _300  and  _302
REMARK  131  A    between atoms: _302  and  _303
REMARK  132  A    between atoms: _302  and  _305
REMARK  133  A    between atoms: _308  and  _310
REMARK  134  A    between atoms: _310  and  _311
REMARK  135  A    between atoms: _310  and  _313
REMARK  136  A    between atoms: _313  and  _314
REMARK  137  A    between atoms: _319  and  _320
REMARK                            x       y       z     vdW  Elec       q    Type
REMARK                         _______ _______ _______ _____ _____    ______ ____
ROOT
ATOM      1  O   HOH     1      45.721  23.096  46.993  0.00  0.00    +0.000 OA
ENDROOT
TORSDOF 0
REMARK  Name = ../refined-set-2016/1c5t/1c5t_pocket.pdb
REMARK  137 active torsions:
REMARK  status: ('A' for Active; 'I' for Inactive)
REMARK    1  A    between atoms: _1  and  _3
REMARK    2  A    between atoms: _3  and  _4
REMARK    3  A    between atoms: _3  and  _6
REMARK    4  A    between atoms: _9  and  _11
REMARK    5  A    between atoms: _11  and  _12
REMARK    6  A    between atoms: _11  and  _14
REMARK    7  A    between atoms: _14  and  _15
REMARK    8  A    between atoms: _15  and  _39
REMARK    9  A    between atoms: _16  and  _18
REMARK   10  A    between atoms: _18  and  _19
REMARK   11  A    between atoms: _22  and  _24
REMARK   12  A    between atoms: _24  and  _25
REMARK   13  A    between atoms: _24  and  _27
REMARK   14  A    between atoms: _27  and  _28
REMARK   15  A    between atoms: _33  and  _35
REMARK   16  A    between atoms: _35  and  _36
REMARK   17  A    between atoms: _35  and  _38
REMARK   18  A    between atoms: _38  and  _39
REMARK   19  A    between atoms: _40  and  _42
REMARK   20  A    between atoms: _42  and  _43
REMARK   21  A    between atoms: _42  and  _45
REMARK   22  A    between atoms: _45  and  _46
REMARK   23  A    between atoms: _49  and  _51
REMARK   24  A    between atoms: _51  and  _52
REMARK   25  A    between atoms: _51  and  _54
REMARK   26  A    between atoms: _54  and  _55
REMARK   27  A    between atoms: _58  and  _60
REMARK   28  A    between atoms: _60  and  _61
REMARK   29  A    between atoms: _60  and  _63
REMARK   30  A    between atoms: _63  and  _64
REMARK   31  A    between atoms: _67  and  _69
REMARK   32  A    between atoms: _69  and  _70
REMARK   33  A    between atoms: _69  and  _72
REMARK   34  A    between atoms: _72  and  _73
REMARK   35  A    between atoms: _78  and  _79
REMARK   36  A    between atoms: _81  and  _83
REMARK   37  A    between atoms: _83  and  _84
REMARK   38  A    between atoms: _83  and  _86
REMARK   39  A    between atoms: _86  and  _87
REMARK   40  A    between atoms: _90  and  _92
REMARK   41  A    between atoms: _92  and  _93
REMARK   42  A    between atoms: _92  and  _95
REMARK   43  A    between atoms: _95  and  _96
REMARK   44  A    between atoms: _101  and  _102
REMARK   45  A    between atoms: _104  and  _106
REMARK   46  A    between atoms: _106  and  _107
REMARK   47  A    between atoms: _110  and  _112
REMARK   48  A    between atoms: _112  and  _113
REMARK   49  A    between atoms: _112  and  _115
REMARK   50  A    between atoms: _115  and  _116
REMARK   51  A    between atoms: _116  and  _117
REMARK   52  A    between atoms: _117  and  _118
REMARK   53  A    between atoms: _118  and  _119
REMARK   54  A    between atoms: _123  and  _125
REMARK   55  A    between atoms: _125  and  _126
REMARK   56  A    between atoms: _125  and  _128
REMARK   57  A    between atoms: _128  and  _129
REMARK   58  A    between atoms: _132  and  _134
REMARK   59  A    between atoms: _134  and  _135
REMARK   60  A    between atoms: _134  and  _137
REMARK   61  A    between atoms: _137  and  _138
REMARK   62  A    between atoms: _140  and  _142
REMARK   63  A    between atoms: _142  and  _143
REMARK   64  A    between atoms: _142  and  _145
REMARK   65  A    between atoms: _145  and  _146
REMARK   66  A    between atoms: _146  and  _256
REMARK   67  A    between atoms: _147  and  _149
REMARK   68  A    between atoms: _149  and  _150
REMARK   69  A    between atoms: _149  and  _152
REMARK   70  A    between atoms: _152  and  _153
REMARK   71  A    between atoms: _153  and  _154
REMARK   72  A    between atoms: _159  and  _161
REMARK   73  A    between atoms: _161  and  _162
REMARK   74  A    between atoms: _164  and  _166
REMARK   75  A    between atoms: _166  and  _167
REMARK   76  A    between atoms: _166  and  _169
REMARK   77  A    between atoms: _169  and  _170
REMARK   78  A    between atoms: _173  and  _175
REMARK   79  A    between atoms: _175  and  _176
REMARK   80  A    between atoms: _175  and  _178
REMARK   81  A    between atoms: _178  and  _179
REMARK   82  A    between atoms: _181  and  _183
REMARK   83  A    between atoms: _183  and  _184
REMARK   84  A    between atoms: _186  and  _188
REMARK   85  A    between atoms: _188  and  _189
REMARK   86  A    between atoms: _191  and  _193
REMARK   87  A    between atoms: _193  and  _194
REMARK   88  A    between atoms: _193  and  _196
REMARK   89  A    between atoms: _196  and  _197
REMARK   90  A    between atoms: _200  and  _202
REMARK   91  A    between atoms: _202  and  _203
REMARK   92  A    between atoms: _202  and  _205
REMARK   93  A    between atoms: _208  and  _210
REMARK   94  A    between atoms: _210  and  _211
REMARK   95  A    between atoms: _210  and  _213
REMARK   96  A    between atoms: _213  and  _214
REMARK   97  A    between atoms: _216  and  _218
REMARK   98  A    between atoms: _218  and  _219
REMARK   99  A    between atoms: _218  and  _221
REMARK  100  A    between atoms: _221  and  _222
REMARK  101  A    between atoms: _232  and  _234
REMARK  102  A    between atoms: _234  and  _235
REMARK  103  A    between atoms: _237  and  _239
REMARK  104  A    between atoms: _239  and  _240
REMARK  105  A    between atoms: _239  and  _242
REMARK  106  A    between atoms: _242  and  _243
REMARK  107  A    between atoms: _245  and  _247
REMARK  108  A    between atoms: _247  and  _248
REMARK  109  A    between atoms: _250  and  _252
REMARK  110  A    between atoms: _252  and  _253
REMARK  111  A    between atoms: _252  and  _255
REMARK  112  A    between atoms: _255  and  _256
REMARK  113  A    between atoms: _257  and  _259
REMARK  114  A    between atoms: _259  and  _260
REMARK  115  A    between atoms: _263  and  _265
REMARK  116  A    between atoms: _265  and  _266
REMARK  117  A    between atoms: _265  and  _268
REMARK  118  A    between atoms: _268  and  _269
REMARK  119  A    between atoms: _269  and  _270
REMARK  120  A    between atoms: _275  and  _277
REMARK  121  A    between atoms: _277  and  _278
REMARK  122  A    between atoms: _277  and  _280
REMARK  123  A    between atoms: _280  and  _281
REMARK  124  A    between atoms: _281  and  _282
REMARK  125  A    between atoms: _282  and  _283
REMARK  126  A    between atoms: _283  and  _284
REMARK  127  A    between atoms: _289  and  _290
REMARK  128  A    between atoms: _295  and  _297
REMARK  129  A    between atoms: _297  and  _298
REMARK  130  A    between atoms: _300  and  _302
REMARK  131  A    between atoms: _302  and  _303
REMARK  132  A    between atoms: _302  and  _305
REMARK  133  A    between atoms: _308  and  _310
REMARK  134  A    between atoms: _310  and  _311
REMARK  135  A    between atoms: _310  and  _313
REMARK  136  A    between atoms: _313  and  _314
REMARK  137  A    between atoms: _319  and  _320
REMARK                            x       y       z     vdW  Elec       q    Type
REMARK                         _______ _______ _______ _____ _____    ______ ____
ROOT
ATOM      1  O   HOH     1      49.878  24.885  45.963  0.00  0.00    +0.000 OA
ENDROOT
TORSDOF 0
REMARK  Name = ../refined-set-2016/1c5t/1c5t_pocket.pdb
REMARK  137 active torsions:
REMARK  status: ('A' for Active; 'I' for Inactive)
REMARK    1  A    between atoms: _1  and  _3
REMARK    2  A    between atoms: _3  and  _4
REMARK    3  A    between atoms: _3  and  _6
REMARK    4  A    between atoms: _9  and  _11
REMARK    5  A    between atoms: _11  and  _12
REMARK    6  A    between atoms: _11  and  _14
REMARK    7  A    between atoms: _14  and  _15
REMARK    8  A    between atoms: _15  and  _39
REMARK    9  A    between atoms: _16  and  _18
REMARK   10  A    between atoms: _18  and  _19
REMARK   11  A    between atoms: _22  and  _24
REMARK   12  A    between atoms: _24  and  _25
REMARK   13  A    between atoms: _24  and  _27
REMARK   14  A    between atoms: _27  and  _28
REMARK   15  A    between atoms: _33  and  _35
REMARK   16  A    between atoms: _35  and  _36
REMARK   17  A    between atoms: _35  and  _38
REMARK   18  A    between atoms: _38  and  _39
REMARK   19  A    between atoms: _40  and  _42
REMARK   20  A    between atoms: _42  and  _43
REMARK   21  A    between atoms: _42  and  _45
REMARK   22  A    between atoms: _45  and  _46
REMARK   23  A    between atoms: _49  and  _51
REMARK   24  A    between atoms: _51  and  _52
REMARK   25  A    between atoms: _51  and  _54
REMARK   26  A    between atoms: _54  and  _55
REMARK   27  A    between atoms: _58  and  _60
REMARK   28  A    between atoms: _60  and  _61
REMARK   29  A    between atoms: _60  and  _63
REMARK   30  A    between atoms: _63  and  _64
REMARK   31  A    between atoms: _67  and  _69
REMARK   32  A    between atoms: _69  and  _70
REMARK   33  A    between atoms: _69  and  _72
REMARK   34  A    between atoms: _72  and  _73
REMARK   35  A    between atoms: _78  and  _79
REMARK   36  A    between atoms: _81  and  _83
REMARK   37  A    between atoms: _83  and  _84
REMARK   38  A    between atoms: _83  and  _86
REMARK   39  A    between atoms: _86  and  _87
REMARK   40  A    between atoms: _90  and  _92
REMARK   41  A    between atoms: _92  and  _93
REMARK   42  A    between atoms: _92  and  _95
REMARK   43  A    between atoms: _95  and  _96
REMARK   44  A    between atoms: _101  and  _102
REMARK   45  A    between atoms: _104  and  _106
REMARK   46  A    between atoms: _106  and  _107
REMARK   47  A    between atoms: _110  and  _112
REMARK   48  A    between atoms: _112  and  _113
REMARK   49  A    between atoms: _112  and  _115
REMARK   50  A    between atoms: _115  and  _116
REMARK   51  A    between atoms: _116  and  _117
REMARK   52  A    between atoms: _117  and  _118
REMARK   53  A    between atoms: _118  and  _119
REMARK   54  A    between atoms: _123  and  _125
REMARK   55  A    between atoms: _125  and  _126
REMARK   56  A    between atoms: _125  and  _128
REMARK   57  A    between atoms: _128  and  _129
REMARK   58  A    between atoms: _132  and  _134
REMARK   59  A    between atoms: _134  and  _135
REMARK   60  A    between atoms: _134  and  _137
REMARK   61  A    between atoms: _137  and  _138
REMARK   62  A    between atoms: _140  and  _142
REMARK   63  A    between atoms: _142  and  _143
REMARK   64  A    between atoms: _142  and  _145
REMARK   65  A    between atoms: _145  and  _146
REMARK   66  A    between atoms: _146  and  _256
REMARK   67  A    between atoms: _147  and  _149
REMARK   68  A    between atoms: _149  and  _150
REMARK   69  A    between atoms: _149  and  _152
REMARK   70  A    between atoms: _152  and  _153
REMARK   71  A    between atoms: _153  and  _154
REMARK   72  A    between atoms: _159  and  _161
REMARK   73  A    between atoms: _161  and  _162
REMARK   74  A    between atoms: _164  and  _166
REMARK   75  A    between atoms: _166  and  _167
REMARK   76  A    between atoms: _166  and  _169
REMARK   77  A    between atoms: _169  and  _170
REMARK   78  A    between atoms: _173  and  _175
REMARK   79  A    between atoms: _175  and  _176
REMARK   80  A    between atoms: _175  and  _178
REMARK   81  A    between atoms: _178  and  _179
REMARK   82  A    between atoms: _181  and  _183
REMARK   83  A    between atoms: _183  and  _184
REMARK   84  A    between atoms: _186  and  _188
REMARK   85  A    between atoms: _188  and  _189
REMARK   86  A    between atoms: _191  and  _193
REMARK   87  A    between atoms: _193  and  _194
REMARK   88  A    between atoms: _193  and  _196
REMARK   89  A    between atoms: _196  and  _197
REMARK   90  A    between atoms: _200  and  _202
REMARK   91  A    between atoms: _202  and  _203
REMARK   92  A    between atoms: _202  and  _205
REMARK   93  A    between atoms: _208  and  _210
REMARK   94  A    between atoms: _210  and  _211
REMARK   95  A    between atoms: _210  and  _213
REMARK   96  A    between atoms: _213  and  _214
REMARK   97  A    between atoms: _216  and  _218
REMARK   98  A    between atoms: _218  and  _219
REMARK   99  A    between atoms: _218  and  _221
REMARK  100  A    between atoms: _221  and  _222
REMARK  101  A    between atoms: _232  and  _234
REMARK  102  A    between atoms: _234  and  _235
REMARK  103  A    between atoms: _237  and  _239
REMARK  104  A    between atoms: _239  and  _240
REMARK  105  A    between atoms: _239  and  _242
REMARK  106  A    between atoms: _242  and  _243
REMARK  107  A    between atoms: _245  and  _247
REMARK  108  A    between atoms: _247  and  _248
REMARK  109  A    between atoms: _250  and  _252
REMARK  110  A    between atoms: _252  and  _253
REMARK  111  A    between atoms: _252  and  _255
REMARK  112  A    between atoms: _255  and  _256
REMARK  113  A    between atoms: _257  and  _259
REMARK  114  A    between atoms: _259  and  _260
REMARK  115  A    between atoms: _263  and  _265
REMARK  116  A    between atoms: _265  and  _266
REMARK  117  A    between atoms: _265  and  _268
REMARK  118  A    between atoms: _268  and  _269
REMARK  119  A    between atoms: _269  and  _270
REMARK  120  A    between atoms: _275  and  _277
REMARK  121  A    between atoms: _277  and  _278
REMARK  122  A    between atoms: _277  and  _280
REMARK  123  A    between atoms: _280  and  _281
REMARK  124  A    between atoms: _281  and  _282
REMARK  125  A    between atoms: _282  and  _283
REMARK  126  A    between atoms: _283  and  _284
REMARK  127  A    between atoms: _289  and  _290
REMARK  128  A    between atoms: _295  and  _297
REMARK  129  A    between atoms: _297  and  _298
REMARK  130  A    between atoms: _300  and  _302
REMARK  131  A    between atoms: _302  and  _303
REMARK  132  A    between atoms: _302  and  _305
REMARK  133  A    between atoms: _308  and  _310
REMARK  134  A    between atoms: _310  and  _311
REMARK  135  A    between atoms: _310  and  _313
REMARK  136  A    between atoms: _313  and  _314
REMARK  137  A    between atoms: _319  and  _320
REMARK                            x       y       z     vdW  Elec       q    Type
REMARK                         _______ _______ _______ _____ _____    ______ ____
ROOT
ATOM      1  O   HOH     1      42.599  23.910  53.916  0.00  0.00    +0.000 OA
ENDROOT
TORSDOF 0
REMARK  Name = ../refined-set-2016/1c5t/1c5t_pocket.pdb
REMARK  137 active torsions:
REMARK  status: ('A' for Active; 'I' for Inactive)
REMARK    1  A    between atoms: _1  and  _3
REMARK    2  A    between atoms: _3  and  _4
REMARK    3  A    between atoms: _3  and  _6
REMARK    4  A    between atoms: _9  and  _11
REMARK    5  A    between atoms: _11  and  _12
REMARK    6  A    between atoms: _11  and  _14
REMARK    7  A    between atoms: _14  and  _15
REMARK    8  A    between atoms: _15  and  _39
REMARK    9  A    between atoms: _16  and  _18
REMARK   10  A    between atoms: _18  and  _19
REMARK   11  A    between atoms: _22  and  _24
REMARK   12  A    between atoms: _24  and  _25
REMARK   13  A    between atoms: _24  and  _27
REMARK   14  A    between atoms: _27  and  _28
REMARK   15  A    between atoms: _33  and  _35
REMARK   16  A    between atoms: _35  and  _36
REMARK   17  A    between atoms: _35  and  _38
REMARK   18  A    between atoms: _38  and  _39
REMARK   19  A    between atoms: _40  and  _42
REMARK   20  A    between atoms: _42  and  _43
REMARK   21  A    between atoms: _42  and  _45
REMARK   22  A    between atoms: _45  and  _46
REMARK   23  A    between atoms: _49  and  _51
REMARK   24  A    between atoms: _51  and  _52
REMARK   25  A    between atoms: _51  and  _54
REMARK   26  A    between atoms: _54  and  _55
REMARK   27  A    between atoms: _58  and  _60
REMARK   28  A    between atoms: _60  and  _61
REMARK   29  A    between atoms: _60  and  _63
REMARK   30  A    between atoms: _63  and  _64
REMARK   31  A    between atoms: _67  and  _69
REMARK   32  A    between atoms: _69  and  _70
REMARK   33  A    between atoms: _69  and  _72
REMARK   34  A    between atoms: _72  and  _73
REMARK   35  A    between atoms: _78  and  _79
REMARK   36  A    between atoms: _81  and  _83
REMARK   37  A    between atoms: _83  and  _84
REMARK   38  A    between atoms: _83  and  _86
REMARK   39  A    between atoms: _86  and  _87
REMARK   40  A    between atoms: _90  and  _92
REMARK   41  A    between atoms: _92  and  _93
REMARK   42  A    between atoms: _92  and  _95
REMARK   43  A    between atoms: _95  and  _96
REMARK   44  A    between atoms: _101  and  _102
REMARK   45  A    between atoms: _104  and  _106
REMARK   46  A    between atoms: _106  and  _107
REMARK   47  A    between atoms: _110  and  _112
REMARK   48  A    between atoms: _112  and  _113
REMARK   49  A    between atoms: _112  and  _115
REMARK   50  A    between atoms: _115  and  _116
REMARK   51  A    between atoms: _116  and  _117
REMARK   52  A    between atoms: _117  and  _118
REMARK   53  A    between atoms: _118  and  _119
REMARK   54  A    between atoms: _123  and  _125
REMARK   55  A    between atoms: _125  and  _126
REMARK   56  A    between atoms: _125  and  _128
REMARK   57  A    between atoms: _128  and  _129
REMARK   58  A    between atoms: _132  and  _134
REMARK   59  A    between atoms: _134  and  _135
REMARK   60  A    between atoms: _134  and  _137
REMARK   61  A    between atoms: _137  and  _138
REMARK   62  A    between atoms: _140  and  _142
REMARK   63  A    between atoms: _142  and  _143
REMARK   64  A    between atoms: _142  and  _145
REMARK   65  A    between atoms: _145  and  _146
REMARK   66  A    between atoms: _146  and  _256
REMARK   67  A    between atoms: _147  and  _149
REMARK   68  A    between atoms: _149  and  _150
REMARK   69  A    between atoms: _149  and  _152
REMARK   70  A    between atoms: _152  and  _153
REMARK   71  A    between atoms: _153  and  _154
REMARK   72  A    between atoms: _159  and  _161
REMARK   73  A    between atoms: _161  and  _162
REMARK   74  A    between atoms: _164  and  _166
REMARK   75  A    between atoms: _166  and  _167
REMARK   76  A    between atoms: _166  and  _169
REMARK   77  A    between atoms: _169  and  _170
REMARK   78  A    between atoms: _173  and  _175
REMARK   79  A    between atoms: _175  and  _176
REMARK   80  A    between atoms: _175  and  _178
REMARK   81  A    between atoms: _178  and  _179
REMARK   82  A    between atoms: _181  and  _183
REMARK   83  A    between atoms: _183  and  _184
REMARK   84  A    between atoms: _186  and  _188
REMARK   85  A    between atoms: _188  and  _189
REMARK   86  A    between atoms: _191  and  _193
REMARK   87  A    between atoms: _193  and  _194
REMARK   88  A    between atoms: _193  and  _196
REMARK   89  A    between atoms: _196  and  _197
REMARK   90  A    between atoms: _200  and  _202
REMARK   91  A    between atoms: _202  and  _203
REMARK   92  A    between atoms: _202  and  _205
REMARK   93  A    between atoms: _208  and  _210
REMARK   94  A    between atoms: _210  and  _211
REMARK   95  A    between atoms: _210  and  _213
REMARK   96  A    between atoms: _213  and  _214
REMARK   97  A    between atoms: _216  and  _218
REMARK   98  A    between atoms: _218  and  _219
REMARK   99  A    between atoms: _218  and  _221
REMARK  100  A    between atoms: _221  and  _222
REMARK  101  A    between atoms: _232  and  _234
REMARK  102  A    between atoms: _234  and  _235
REMARK  103  A    between atoms: _237  and  _239
REMARK  104  A    between atoms: _239  and  _240
REMARK  105  A    between atoms: _239  and  _242
REMARK  106  A    between atoms: _242  and  _243
REMARK  107  A    between atoms: _245  and  _247
REMARK  108  A    between atoms: _247  and  _248
REMARK  109  A    between atoms: _250  and  _252
REMARK  110  A    between atoms: _252  and  _253
REMARK  111  A    between atoms: _252  and  _255
REMARK  112  A    between atoms: _255  and  _256
REMARK  113  A    between atoms: _257  and  _259
REMARK  114  A    between atoms: _259  and  _260
REMARK  115  A    between atoms: _263  and  _265
REMARK  116  A    between atoms: _265  and  _266
REMARK  117  A    between atoms: _265  and  _268
REMARK  118  A    between atoms: _268  and  _269
REMARK  119  A    between atoms: _269  and  _270
REMARK  120  A    between atoms: _275  and  _277
REMARK  121  A    between atoms: _277  and  _278
REMARK  122  A    between atoms: _277  and  _280
REMARK  123  A    between atoms: _280  and  _281
REMARK  124  A    between atoms: _281  and  _282
REMARK  125  A    between atoms: _282  and  _283
REMARK  126  A    between atoms: _283  and  _284
REMARK  127  A    between atoms: _289  and  _290
REMARK  128  A    between atoms: _295  and  _297
REMARK  129  A    between atoms: _297  and  _298
REMARK  130  A    between atoms: _300  and  _302
REMARK  131  A    between atoms: _302  and  _303
REMARK  132  A    between atoms: _302  and  _305
REMARK  133  A    between atoms: _308  and  _310
REMARK  134  A    between atoms: _310  and  _311
REMARK  135  A    between atoms: _310  and  _313
REMARK  136  A    between atoms: _313  and  _314
REMARK  137  A    between atoms: _319  and  _320
REMARK                            x       y       z     vdW  Elec       q    Type
REMARK                         _______ _______ _______ _____ _____    ______ ____
ROOT
ATOM      1  O   HOH     1      42.479  26.049  44.281  0.00  0.00    +0.000 OA
ENDROOT
TORSDOF 0
REMARK  Name = ../refined-set-2016/1c5t/1c5t_pocket.pdb
REMARK  137 active torsions:
REMARK  status: ('A' for Active; 'I' for Inactive)
REMARK    1  A    between atoms: _1  and  _3
REMARK    2  A    between atoms: _3  and  _4
REMARK    3  A    between atoms: _3  and  _6
REMARK    4  A    between atoms: _9  and  _11
REMARK    5  A    between atoms: _11  and  _12
REMARK    6  A    between atoms: _11  and  _14
REMARK    7  A    between atoms: _14  and  _15
REMARK    8  A    between atoms: _15  and  _39
REMARK    9  A    between atoms: _16  and  _18
REMARK   10  A    between atoms: _18  and  _19
REMARK   11  A    between atoms: _22  and  _24
REMARK   12  A    between atoms: _24  and  _25
REMARK   13  A    between atoms: _24  and  _27
REMARK   14  A    between atoms: _27  and  _28
REMARK   15  A    between atoms: _33  and  _35
REMARK   16  A    between atoms: _35  and  _36
REMARK   17  A    between atoms: _35  and  _38
REMARK   18  A    between atoms: _38  and  _39
REMARK   19  A    between atoms: _40  and  _42
REMARK   20  A    between atoms: _42  and  _43
REMARK   21  A    between atoms: _42  and  _45
REMARK   22  A    between atoms: _45  and  _46
REMARK   23  A    between atoms: _49  and  _51
REMARK   24  A    between atoms: _51  and  _52
REMARK   25  A    between atoms: _51  and  _54
REMARK   26  A    between atoms: _54  and  _55
REMARK   27  A    between atoms: _58  and  _60
REMARK   28  A    between atoms: _60  and  _61
REMARK   29  A    between atoms: _60  and  _63
REMARK   30  A    between atoms: _63  and  _64
REMARK   31  A    between atoms: _67  and  _69
REMARK   32  A    between atoms: _69  and  _70
REMARK   33  A    between atoms: _69  and  _72
REMARK   34  A    between atoms: _72  and  _73
REMARK   35  A    between atoms: _78  and  _79
REMARK   36  A    between atoms: _81  and  _83
REMARK   37  A    between atoms: _83  and  _84
REMARK   38  A    between atoms: _83  and  _86
REMARK   39  A    between atoms: _86  and  _87
REMARK   40  A    between atoms: _90  and  _92
REMARK   41  A    between atoms: _92  and  _93
REMARK   42  A    between atoms: _92  and  _95
REMARK   43  A    between atoms: _95  and  _96
REMARK   44  A    between atoms: _101  and  _102
REMARK   45  A    between atoms: _104  and  _106
REMARK   46  A    between atoms: _106  and  _107
REMARK   47  A    between atoms: _110  and  _112
REMARK   48  A    between atoms: _112  and  _113
REMARK   49  A    between atoms: _112  and  _115
REMARK   50  A    between atoms: _115  and  _116
REMARK   51  A    between atoms: _116  and  _117
REMARK   52  A    between atoms: _117  and  _118
REMARK   53  A    between atoms: _118  and  _119
REMARK   54  A    between atoms: _123  and  _125
REMARK   55  A    between atoms: _125  and  _126
REMARK   56  A    between atoms: _125  and  _128
REMARK   57  A    between atoms: _128  and  _129
REMARK   58  A    between atoms: _132  and  _134
REMARK   59  A    between atoms: _134  and  _135
REMARK   60  A    between atoms: _134  and  _137
REMARK   61  A    between atoms: _137  and  _138
REMARK   62  A    between atoms: _140  and  _142
REMARK   63  A    between atoms: _142  and  _143
REMARK   64  A    between atoms: _142  and  _145
REMARK   65  A    between atoms: _145  and  _146
REMARK   66  A    between atoms: _146  and  _256
REMARK   67  A    between atoms: _147  and  _149
REMARK   68  A    between atoms: _149  and  _150
REMARK   69  A    between atoms: _149  and  _152
REMARK   70  A    between atoms: _152  and  _153
REMARK   71  A    between atoms: _153  and  _154
REMARK   72  A    between atoms: _159  and  _161
REMARK   73  A    between atoms: _161  and  _162
REMARK   74  A    between atoms: _164  and  _166
REMARK   75  A    between atoms: _166  and  _167
REMARK   76  A    between atoms: _166  and  _169
REMARK   77  A    between atoms: _169  and  _170
REMARK   78  A    between atoms: _173  and  _175
REMARK   79  A    between atoms: _175  and  _176
REMARK   80  A    between atoms: _175  and  _178
REMARK   81  A    between atoms: _178  and  _179
REMARK   82  A    between atoms: _181  and  _183
REMARK   83  A    between atoms: _183  and  _184
REMARK   84  A    between atoms: _186  and  _188
REMARK   85  A    between atoms: _188  and  _189
REMARK   86  A    between atoms: _191  and  _193
REMARK   87  A    between atoms: _193  and  _194
REMARK   88  A    between atoms: _193  and  _196
REMARK   89  A    between atoms: _196  and  _197
REMARK   90  A    between atoms: _200  and  _202
REMARK   91  A    between atoms: _202  and  _203
REMARK   92  A    between atoms: _202  and  _205
REMARK   93  A    between atoms: _208  and  _210
REMARK   94  A    between atoms: _210  and  _211
REMARK   95  A    between atoms: _210  and  _213
REMARK   96  A    between atoms: _213  and  _214
REMARK   97  A    between atoms: _216  and  _218
REMARK   98  A    between atoms: _218  and  _219
REMARK   99  A    between atoms: _218  and  _221
REMARK  100  A    between atoms: _221  and  _222
REMARK  101  A    between atoms: _232  and  _234
REMARK  102  A    between atoms: _234  and  _235
REMARK  103  A    between atoms: _237  and  _239
REMARK  104  A    between atoms: _239  and  _240
REMARK  105  A    between atoms: _239  and  _242
REMARK  106  A    between atoms: _242  and  _243
REMARK  107  A    between atoms: _245  and  _247
REMARK  108  A    between atoms: _247  and  _248
REMARK  109  A    between atoms: _250  and  _252
REMARK  110  A    between atoms: _252  and  _253
REMARK  111  A    between atoms: _252  and  _255
REMARK  112  A    between atoms: _255  and  _256
REMARK  113  A    between atoms: _257  and  _259
REMARK  114  A    between atoms: _259  and  _260
REMARK  115  A    between atoms: _263  and  _265
REMARK  116  A    between atoms: _265  and  _266
REMARK  117  A    between atoms: _265  and  _268
REMARK  118  A    between atoms: _268  and  _269
REMARK  119  A    between atoms: _269  and  _270
REMARK  120  A    between atoms: _275  and  _277
REMARK  121  A    between atoms: _277  and  _278
REMARK  122  A    between atoms: _277  and  _280
REMARK  123  A    between atoms: _280  and  _281
REMARK  124  A    between atoms: _281  and  _282
REMARK  125  A    between atoms: _282  and  _283
REMARK  126  A    between atoms: _283  and  _284
REMARK  127  A    between atoms: _289  and  _290
REMARK  128  A    between atoms: _295  and  _297
REMARK  129  A    between atoms: _297  and  _298
REMARK  130  A    between atoms: _300  and  _302
REMARK  131  A    between atoms: _302  and  _303
REMARK  132  A    between atoms: _302  and  _305
REMARK  133  A    between atoms: _308  and  _310
REMARK  134  A    between atoms: _310  and  _311
REMARK  135  A    between atoms: _310  and  _313
REMARK  136  A    between atoms: _313  and  _314
REMARK  137  A    between atoms: _319  and  _320
REMARK                            x       y       z     vdW  Elec       q    Type
REMARK                         _______ _______ _______ _____ _____    ______ ____
ROOT
ATOM      1  O   HOH     1      46.754  24.695  55.841  0.00  0.00    +0.000 OA
ENDROOT
TORSDOF 0
REMARK  Name = ../refined-set-2016/1c5t/1c5t_pocket.pdb
REMARK  137 active torsions:
REMARK  status: ('A' for Active; 'I' for Inactive)
REMARK    1  A    between atoms: _1  and  _3
REMARK    2  A    between atoms: _3  and  _4
REMARK    3  A    between atoms: _3  and  _6
REMARK    4  A    between atoms: _9  and  _11
REMARK    5  A    between atoms: _11  and  _12
REMARK    6  A    between atoms: _11  and  _14
REMARK    7  A    between atoms: _14  and  _15
REMARK    8  A    between atoms: _15  and  _39
REMARK    9  A    between atoms: _16  and  _18
REMARK   10  A    between atoms: _18  and  _19
REMARK   11  A    between atoms: _22  and  _24
REMARK   12  A    between atoms: _24  and  _25
REMARK   13  A    between atoms: _24  and  _27
REMARK   14  A    between atoms: _27  and  _28
REMARK   15  A    between atoms: _33  and  _35
REMARK   16  A    between atoms: _35  and  _36
REMARK   17  A    between atoms: _35  and  _38
REMARK   18  A    between atoms: _38  and  _39
REMARK   19  A    between atoms: _40  and  _42
REMARK   20  A    between atoms: _42  and  _43
REMARK   21  A    between atoms: _42  and  _45
REMARK   22  A    between atoms: _45  and  _46
REMARK   23  A    between atoms: _49  and  _51
REMARK   24  A    between atoms: _51  and  _52
REMARK   25  A    between atoms: _51  and  _54
REMARK   26  A    between atoms: _54  and  _55
REMARK   27  A    between atoms: _58  and  _60
REMARK   28  A    between atoms: _60  and  _61
REMARK   29  A    between atoms: _60  and  _63
REMARK   30  A    between atoms: _63  and  _64
REMARK   31  A    between atoms: _67  and  _69
REMARK   32  A    between atoms: _69  and  _70
REMARK   33  A    between atoms: _69  and  _72
REMARK   34  A    between atoms: _72  and  _73
REMARK   35  A    between atoms: _78  and  _79
REMARK   36  A    between atoms: _81  and  _83
REMARK   37  A    between atoms: _83  and  _84
REMARK   38  A    between atoms: _83  and  _86
REMARK   39  A    between atoms: _86  and  _87
REMARK   40  A    between atoms: _90  and  _92
REMARK   41  A    between atoms: _92  and  _93
REMARK   42  A    between atoms: _92  and  _95
REMARK   43  A    between atoms: _95  and  _96
REMARK   44  A    between atoms: _101  and  _102
REMARK   45  A    between atoms: _104  and  _106
REMARK   46  A    between atoms: _106  and  _107
REMARK   47  A    between atoms: _110  and  _112
REMARK   48  A    between atoms: _112  and  _113
REMARK   49  A    between atoms: _112  and  _115
REMARK   50  A    between atoms: _115  and  _116
REMARK   51  A    between atoms: _116  and  _117
REMARK   52  A    between atoms: _117  and  _118
REMARK   53  A    between atoms: _118  and  _119
REMARK   54  A    between atoms: _123  and  _125
REMARK   55  A    between atoms: _125  and  _126
REMARK   56  A    between atoms: _125  and  _128
REMARK   57  A    between atoms: _128  and  _129
REMARK   58  A    between atoms: _132  and  _134
REMARK   59  A    between atoms: _134  and  _135
REMARK   60  A    between atoms: _134  and  _137
REMARK   61  A    between atoms: _137  and  _138
REMARK   62  A    between atoms: _140  and  _142
REMARK   63  A    between atoms: _142  and  _143
REMARK   64  A    between atoms: _142  and  _145
REMARK   65  A    between atoms: _145  and  _146
REMARK   66  A    between atoms: _146  and  _256
REMARK   67  A    between atoms: _147  and  _149
REMARK   68  A    between atoms: _149  and  _150
REMARK   69  A    between atoms: _149  and  _152
REMARK   70  A    between atoms: _152  and  _153
REMARK   71  A    between atoms: _153  and  _154
REMARK   72  A    between atoms: _159  and  _161
REMARK   73  A    between atoms: _161  and  _162
REMARK   74  A    between atoms: _164  and  _166
REMARK   75  A    between atoms: _166  and  _167
REMARK   76  A    between atoms: _166  and  _169
REMARK   77  A    between atoms: _169  and  _170
REMARK   78  A    between atoms: _173  and  _175
REMARK   79  A    between atoms: _175  and  _176
REMARK   80  A    between atoms: _175  and  _178
REMARK   81  A    between atoms: _178  and  _179
REMARK   82  A    between atoms: _181  and  _183
REMARK   83  A    between atoms: _183  and  _184
REMARK   84  A    between atoms: _186  and  _188
REMARK   85  A    between atoms: _188  and  _189
REMARK   86  A    between atoms: _191  and  _193
REMARK   87  A    between atoms: _193  and  _194
REMARK   88  A    between atoms: _193  and  _196
REMARK   89  A    between atoms: _196  and  _197
REMARK   90  A    between atoms: _200  and  _202
REMARK   91  A    between atoms: _202  and  _203
REMARK   92  A    between atoms: _202  and  _205
REMARK   93  A    between atoms: _208  and  _210
REMARK   94  A    between atoms: _210  and  _211
REMARK   95  A    between atoms: _210  and  _213
REMARK   96  A    between atoms: _213  and  _214
REMARK   97  A    between atoms: _216  and  _218
REMARK   98  A    between atoms: _218  and  _219
REMARK   99  A    between atoms: _218  and  _221
REMARK  100  A    between atoms: _221  and  _222
REMARK  101  A    between atoms: _232  and  _234
REMARK  102  A    between atoms: _234  and  _235
REMARK  103  A    between atoms: _237  and  _239
REMARK  104  A    between atoms: _239  and  _240
REMARK  105  A    between atoms: _239  and  _242
REMARK  106  A    between atoms: _242  and  _243
REMARK  107  A    between atoms: _245  and  _247
REMARK  108  A    between atoms: _247  and  _248
REMARK  109  A    between atoms: _250  and  _252
REMARK  110  A    between atoms: _252  and  _253
REMARK  111  A    between atoms: _252  and  _255
REMARK  112  A    between atoms: _255  and  _256
REMARK  113  A    between atoms: _257  and  _259
REMARK  114  A    between atoms: _259  and  _260
REMARK  115  A    between atoms: _263  and  _265
REMARK  116  A    between atoms: _265  and  _266
REMARK  117  A    between atoms: _265  and  _268
REMARK  118  A    between atoms: _268  and  _269
REMARK  119  A    between atoms: _269  and  _270
REMARK  120  A    between atoms: _275  and  _277
REMARK  121  A    between atoms: _277  and  _278
REMARK  122  A    between atoms: _277  and  _280
REMARK  123  A    between atoms: _280  and  _281
REMARK  124  A    between atoms: _281  and  _282
REMARK  125  A    between atoms: _282  and  _283
REMARK  126  A    between atoms: _283  and  _284
REMARK  127  A    between atoms: _289  and  _290
REMARK  128  A    between atoms: _295  and  _297
REMARK  129  A    between atoms: _297  and  _298
REMARK  130  A    between atoms: _300  and  _302
REMARK  131  A    between atoms: _302  and  _303
REMARK  132  A    between atoms: _302  and  _305
REMARK  133  A    between atoms: _308  and  _310
REMARK  134  A    between atoms: _310  and  _311
REMARK  135  A    between atoms: _310  and  _313
REMARK  136  A    between atoms: _313  and  _314
REMARK  137  A    between atoms: _319  and  _320
REMARK                            x       y       z     vdW  Elec       q    Type
REMARK                         _______ _______ _______ _____ _____    ______ ____
ROOT
ATOM      1  O   HOH     1      45.893  25.491  59.789  0.00  0.00    +0.000 OA
ENDROOT
TORSDOF 0
REMARK  Name = ../refined-set-2016/1c5t/1c5t_pocket.pdb
REMARK  137 active torsions:
REMARK  status: ('A' for Active; 'I' for Inactive)
REMARK    1  A    between atoms: _1  and  _3
REMARK    2  A    between atoms: _3  and  _4
REMARK    3  A    between atoms: _3  and  _6
REMARK    4  A    between atoms: _9  and  _11
REMARK    5  A    between atoms: _11  and  _12
REMARK    6  A    between atoms: _11  and  _14
REMARK    7  A    between atoms: _14  and  _15
REMARK    8  A    between atoms: _15  and  _39
REMARK    9  A    between atoms: _16  and  _18
REMARK   10  A    between atoms: _18  and  _19
REMARK   11  A    between atoms: _22  and  _24
REMARK   12  A    between atoms: _24  and  _25
REMARK   13  A    between atoms: _24  and  _27
REMARK   14  A    between atoms: _27  and  _28
REMARK   15  A    between atoms: _33  and  _35
REMARK   16  A    between atoms: _35  and  _36
REMARK   17  A    between atoms: _35  and  _38
REMARK   18  A    between atoms: _38  and  _39
REMARK   19  A    between atoms: _40  and  _42
REMARK   20  A    between atoms: _42  and  _43
REMARK   21  A    between atoms: _42  and  _45
REMARK   22  A    between atoms: _45  and  _46
REMARK   23  A    between atoms: _49  and  _51
REMARK   24  A    between atoms: _51  and  _52
REMARK   25  A    between atoms: _51  and  _54
REMARK   26  A    between atoms: _54  and  _55
REMARK   27  A    between atoms: _58  and  _60
REMARK   28  A    between atoms: _60  and  _61
REMARK   29  A    between atoms: _60  and  _63
REMARK   30  A    between atoms: _63  and  _64
REMARK   31  A    between atoms: _67  and  _69
REMARK   32  A    between atoms: _69  and  _70
REMARK   33  A    between atoms: _69  and  _72
REMARK   34  A    between atoms: _72  and  _73
REMARK   35  A    between atoms: _78  and  _79
REMARK   36  A    between atoms: _81  and  _83
REMARK   37  A    between atoms: _83  and  _84
REMARK   38  A    between atoms: _83  and  _86
REMARK   39  A    between atoms: _86  and  _87
REMARK   40  A    between atoms: _90  and  _92
REMARK   41  A    between atoms: _92  and  _93
REMARK   42  A    between atoms: _92  and  _95
REMARK   43  A    between atoms: _95  and  _96
REMARK   44  A    between atoms: _101  and  _102
REMARK   45  A    between atoms: _104  and  _106
REMARK   46  A    between atoms: _106  and  _107
REMARK   47  A    between atoms: _110  and  _112
REMARK   48  A    between atoms: _112  and  _113
REMARK   49  A    between atoms: _112  and  _115
REMARK   50  A    between atoms: _115  and  _116
REMARK   51  A    between atoms: _116  and  _117
REMARK   52  A    between atoms: _117  and  _118
REMARK   53  A    between atoms: _118  and  _119
REMARK   54  A    between atoms: _123  and  _125
REMARK   55  A    between atoms: _125  and  _126
REMARK   56  A    between atoms: _125  and  _128
REMARK   57  A    between atoms: _128  and  _129
REMARK   58  A    between atoms: _132  and  _134
REMARK   59  A    between atoms: _134  and  _135
REMARK   60  A    between atoms: _134  and  _137
REMARK   61  A    between atoms: _137  and  _138
REMARK   62  A    between atoms: _140  and  _142
REMARK   63  A    between atoms: _142  and  _143
REMARK   64  A    between atoms: _142  and  _145
REMARK   65  A    between atoms: _145  and  _146
REMARK   66  A    between atoms: _146  and  _256
REMARK   67  A    between atoms: _147  and  _149
REMARK   68  A    between atoms: _149  and  _150
REMARK   69  A    between atoms: _149  and  _152
REMARK   70  A    between atoms: _152  and  _153
REMARK   71  A    between atoms: _153  and  _154
REMARK   72  A    between atoms: _159  and  _161
REMARK   73  A    between atoms: _161  and  _162
REMARK   74  A    between atoms: _164  and  _166
REMARK   75  A    between atoms: _166  and  _167
REMARK   76  A    between atoms: _166  and  _169
REMARK   77  A    between atoms: _169  and  _170
REMARK   78  A    between atoms: _173  and  _175
REMARK   79  A    between atoms: _175  and  _176
REMARK   80  A    between atoms: _175  and  _178
REMARK   81  A    between atoms: _178  and  _179
REMARK   82  A    between atoms: _181  and  _183
REMARK   83  A    between atoms: _183  and  _184
REMARK   84  A    between atoms: _186  and  _188
REMARK   85  A    between atoms: _188  and  _189
REMARK   86  A    between atoms: _191  and  _193
REMARK   87  A    between atoms: _193  and  _194
REMARK   88  A    between atoms: _193  and  _196
REMARK   89  A    between atoms: _196  and  _197
REMARK   90  A    between atoms: _200  and  _202
REMARK   91  A    between atoms: _202  and  _203
REMARK   92  A    between atoms: _202  and  _205
REMARK   93  A    between atoms: _208  and  _210
REMARK   94  A    between atoms: _210  and  _211
REMARK   95  A    between atoms: _210  and  _213
REMARK   96  A    between atoms: _213  and  _214
REMARK   97  A    between atoms: _216  and  _218
REMARK   98  A    between atoms: _218  and  _219
REMARK   99  A    between atoms: _218  and  _221
REMARK  100  A    between atoms: _221  and  _222
REMARK  101  A    between atoms: _232  and  _234
REMARK  102  A    between atoms: _234  and  _235
REMARK  103  A    between atoms: _237  and  _239
REMARK  104  A    between atoms: _239  and  _240
REMARK  105  A    between atoms: _239  and  _242
REMARK  106  A    between atoms: _242  and  _243
REMARK  107  A    between atoms: _245  and  _247
REMARK  108  A    between atoms: _247  and  _248
REMARK  109  A    between atoms: _250  and  _252
REMARK  110  A    between atoms: _252  and  _253
REMARK  111  A    between atoms: _252  and  _255
REMARK  112  A    between atoms: _255  and  _256
REMARK  113  A    between atoms: _257  and  _259
REMARK  114  A    between atoms: _259  and  _260
REMARK  115  A    between atoms: _263  and  _265
REMARK  116  A    between atoms: _265  and  _266
REMARK  117  A    between atoms: _265  and  _268
REMARK  118  A    between atoms: _268  and  _269
REMARK  119  A    between atoms: _269  and  _270
REMARK  120  A    between atoms: _275  and  _277
REMARK  121  A    between atoms: _277  and  _278
REMARK  122  A    between atoms: _277  and  _280
REMARK  123  A    between atoms: _280  and  _281
REMARK  124  A    between atoms: _281  and  _282
REMARK  125  A    between atoms: _282  and  _283
REMARK  126  A    between atoms: _283  and  _284
REMARK  127  A    between atoms: _289  and  _290
REMARK  128  A    between atoms: _295  and  _297
REMARK  129  A    between atoms: _297  and  _298
REMARK  130  A    between atoms: _300  and  _302
REMARK  131  A    between atoms: _302  and  _303
REMARK  132  A    between atoms: _302  and  _305
REMARK  133  A    between atoms: _308  and  _310
REMARK  134  A    between atoms: _310  and  _311
REMARK  135  A    between atoms: _310  and  _313
REMARK  136  A    between atoms: _313  and  _314
REMARK  137  A    between atoms: _319  and  _320
REMARK                            x       y       z     vdW  Elec       q    Type
REMARK                         _______ _______ _______ _____ _____    ______ ____
ROOT
ATOM      1  O   HOH     1      40.000  28.075  46.565  0.00  0.00    +0.000 OA
ENDROOT
TORSDOF 0
