REMARK  Name = ../refined-set-2016/3iss/3iss_pocket.pdb
REMARK  237 active torsions:
REMARK  status: ('A' for Active; 'I' for Inactive)
REMARK    1  A    between atoms: _1  and  _3
REMARK    2  A    between atoms: _3  and  _4
REMARK    3  A    between atoms: _3  and  _6
REMARK    4  A    between atoms: _6  and  _7
REMARK    5  A    between atoms: _7  and  _8
REMARK    6  A    between atoms: _8  and  _9
REMARK    7  A    between atoms: _9  and  _10
REMARK    8  A    between atoms: _14  and  _16
REMARK    9  A    between atoms: _16  and  _17
REMARK   10  A    between atoms: _16  and  _19
REMARK   11  A    between atoms: _19  and  _20
REMARK   12  A    between atoms: _25  and  _27
REMARK   13  A    between atoms: _27  and  _28
REMARK   14  A    between atoms: _31  and  _33
REMARK   15  A    between atoms: _33  and  _34
REMARK   16  A    between atoms: _33  and  _36
REMARK   17  A    between atoms: _36  and  _37
REMARK   18  A    between atoms: _41  and  _42
REMARK   19  A    between atoms: _47  and  _49
REMARK   20  A    between atoms: _49  and  _50
REMARK   21  A    between atoms: _49  and  _52
REMARK   22  A    between atoms: _52  and  _53
REMARK   23  A    between atoms: _56  and  _58
REMARK   24  A    between atoms: _58  and  _59
REMARK   25  A    between atoms: _58  and  _61
REMARK   26  A    between atoms: _61  and  _62
REMARK   27  A    between atoms: _62  and  _63
REMARK   28  A    between atoms: _65  and  _67
REMARK   29  A    between atoms: _67  and  _68
REMARK   30  A    between atoms: _67  and  _70
REMARK   31  A    between atoms: _70  and  _71
REMARK   32  A    between atoms: _71  and  _72
REMARK   33  A    between atoms: _72  and  _73
REMARK   34  A    between atoms: _82  and  _84
REMARK   35  A    between atoms: _84  and  _85
REMARK   36  A    between atoms: _88  and  _90
REMARK   37  A    between atoms: _90  and  _91
REMARK   38  A    between atoms: _90  and  _93
REMARK   39  A    between atoms: _93  and  _94
REMARK   40  A    between atoms: _96  and  _98
REMARK   41  A    between atoms: _98  and  _99
REMARK   42  A    between atoms: _98  and  _101
REMARK   43  A    between atoms: _101  and  _102
REMARK   44  A    between atoms: _105  and  _107
REMARK   45  A    between atoms: _107  and  _108
REMARK   46  A    between atoms: _107  and  _110
REMARK   47  A    between atoms: _110  and  _111
REMARK   48  A    between atoms: _121  and  _123
REMARK   49  A    between atoms: _123  and  _124
REMARK   50  A    between atoms: _123  and  _126
REMARK   51  A    between atoms: _128  and  _130
REMARK   52  A    between atoms: _130  and  _131
REMARK   53  A    between atoms: _130  and  _133
REMARK   54  A    between atoms: _133  and  _134
REMARK   55  A    between atoms: _137  and  _139
REMARK   56  A    between atoms: _139  and  _140
REMARK   57  A    between atoms: _142  and  _144
REMARK   58  A    between atoms: _144  and  _145
REMARK   59  A    between atoms: _148  and  _150
REMARK   60  A    between atoms: _150  and  _151
REMARK   61  A    between atoms: _150  and  _153
REMARK   62  A    between atoms: _153  and  _154
REMARK   63  A    between atoms: _154  and  _155
REMARK   64  A    between atoms: _155  and  _156
REMARK   65  A    between atoms: _166  and  _167
REMARK   66  A    between atoms: _172  and  _174
REMARK   67  A    between atoms: _174  and  _175
REMARK   68  A    between atoms: _174  and  _177
REMARK   69  A    between atoms: _180  and  _182
REMARK   70  A    between atoms: _182  and  _183
REMARK   71  A    between atoms: _182  and  _185
REMARK   72  A    between atoms: _185  and  _186
REMARK   73  A    between atoms: _189  and  _191
REMARK   74  A    between atoms: _191  and  _192
REMARK   75  A    between atoms: _191  and  _194
REMARK   76  A    between atoms: _194  and  _195
REMARK   77  A    between atoms: _198  and  _200
REMARK   78  A    between atoms: _200  and  _201
REMARK   79  A    between atoms: _200  and  _203
REMARK   80  A    between atoms: _203  and  _204
REMARK   81  A    between atoms: _209  and  _211
REMARK   82  A    between atoms: _211  and  _212
REMARK   83  A    between atoms: _211  and  _214
REMARK   84  A    between atoms: _214  and  _215
REMARK   85  A    between atoms: _218  and  _220
REMARK   86  A    between atoms: _220  and  _221
REMARK   87  A    between atoms: _220  and  _223
REMARK   88  A    between atoms: _223  and  _224
REMARK   89  A    between atoms: _226  and  _228
REMARK   90  A    between atoms: _228  and  _229
REMARK   91  A    between atoms: _231  and  _233
REMARK   92  A    between atoms: _233  and  _234
REMARK   93  A    between atoms: _233  and  _236
REMARK   94  A    between atoms: _236  and  _237
REMARK   95  A    between atoms: _237  and  _238
REMARK   96  A    between atoms: _240  and  _242
REMARK   97  A    between atoms: _242  and  _243
REMARK   98  A    between atoms: _242  and  _245
REMARK   99  A    between atoms: _245  and  _246
REMARK  100  A    between atoms: _249  and  _251
REMARK  101  A    between atoms: _251  and  _252
REMARK  102  A    between atoms: _251  and  _254
REMARK  103  A    between atoms: _254  and  _255
REMARK  104  A    between atoms: _255  and  _256
REMARK  105  A    between atoms: _256  and  _257
REMARK  106  A    between atoms: _257  and  _258
REMARK  107  A    between atoms: _262  and  _264
REMARK  108  A    between atoms: _264  and  _265
REMARK  109  A    between atoms: _264  and  _267
REMARK  110  A    between atoms: _270  and  _272
REMARK  111  A    between atoms: _272  and  _273
REMARK  112  A    between atoms: _272  and  _275
REMARK  113  A    between atoms: _275  and  _276
REMARK  114  A    between atoms: _278  and  _280
REMARK  115  A    between atoms: _280  and  _281
REMARK  116  A    between atoms: _280  and  _283
REMARK  117  A    between atoms: _286  and  _288
REMARK  118  A    between atoms: _288  and  _289
REMARK  119  A    between atoms: _291  and  _293
REMARK  120  A    between atoms: _293  and  _294
REMARK  121  A    between atoms: _297  and  _299
REMARK  122  A    between atoms: _299  and  _300
REMARK  123  A    between atoms: _299  and  _302
REMARK  124  A    between atoms: _302  and  _303
REMARK  125  A    between atoms: _306  and  _308
REMARK  126  A    between atoms: _308  and  _309
REMARK  127  A    between atoms: _308  and  _311
REMARK  128  A    between atoms: _314  and  _316
REMARK  129  A    between atoms: _316  and  _317
REMARK  130  A    between atoms: _316  and  _319
REMARK  131  A    between atoms: _319  and  _320
REMARK  132  A    between atoms: _323  and  _325
REMARK  133  A    between atoms: _325  and  _326
REMARK  134  A    between atoms: _329  and  _331
REMARK  135  A    between atoms: _331  and  _332
REMARK  136  A    between atoms: _331  and  _334
REMARK  137  A    between atoms: _334  and  _335
REMARK  138  A    between atoms: _335  and  _336
REMARK  139  A    between atoms: _339  and  _341
REMARK  140  A    between atoms: _341  and  _342
REMARK  141  A    between atoms: _341  and  _344
REMARK  142  A    between atoms: _344  and  _345
REMARK  143  A    between atoms: _345  and  _346
REMARK  144  A    between atoms: _349  and  _351
REMARK  145  A    between atoms: _351  and  _352
REMARK  146  A    between atoms: _351  and  _354
REMARK  147  A    between atoms: _354  and  _355
REMARK  148  A    between atoms: _358  and  _360
REMARK  149  A    between atoms: _360  and  _361
REMARK  150  A    between atoms: _360  and  _363
REMARK  151  A    between atoms: _363  and  _364
REMARK  152  A    between atoms: _367  and  _369
REMARK  153  A    between atoms: _369  and  _370
REMARK  154  A    between atoms: _369  and  _372
REMARK  155  A    between atoms: _372  and  _373
REMARK  156  A    between atoms: _373  and  _374
REMARK  157  A    between atoms: _374  and  _375
REMARK  158  A    between atoms: _384  and  _386
REMARK  159  A    between atoms: _386  and  _387
REMARK  160  A    between atoms: _386  and  _389
REMARK  161  A    between atoms: _389  and  _390
REMARK  162  A    between atoms: _393  and  _395
REMARK  163  A    between atoms: _395  and  _396
REMARK  164  A    between atoms: _400  and  _401
REMARK  165  A    between atoms: _406  and  _408
REMARK  166  A    between atoms: _408  and  _409
REMARK  167  A    between atoms: _408  and  _411
REMARK  168  A    between atoms: _411  and  _412
REMARK  169  A    between atoms: _418  and  _419
REMARK  170  A    between atoms: _424  and  _426
REMARK  171  A    between atoms: _426  and  _427
REMARK  172  A    between atoms: _426  and  _429
REMARK  173  A    between atoms: _429  and  _430
REMARK  174  A    between atoms: _433  and  _435
REMARK  175  A    between atoms: _435  and  _436
REMARK  176  A    between atoms: _435  and  _438
REMARK  177  A    between atoms: _438  and  _439
REMARK  178  A    between atoms: _442  and  _444
REMARK  179  A    between atoms: _444  and  _445
REMARK  180  A    between atoms: _444  and  _447
REMARK  181  A    between atoms: _447  and  _448
REMARK  182  A    between atoms: _448  and  _449
REMARK  183  A    between atoms: _451  and  _453
REMARK  184  A    between atoms: _453  and  _454
REMARK  185  A    between atoms: _453  and  _456
REMARK  186  A    between atoms: _456  and  _457
REMARK  187  A    between atoms: _457  and  _458
REMARK  188  A    between atoms: _461  and  _463
REMARK  189  A    between atoms: _463  and  _464
REMARK  190  A    between atoms: _463  and  _466
REMARK  191  A    between atoms: _466  and  _467
REMARK  192  A    between atoms: _470  and  _472
REMARK  193  A    between atoms: _472  and  _473
REMARK  194  A    between atoms: _472  and  _475
REMARK  195  A    between atoms: _478  and  _480
REMARK  196  A    between atoms: _480  and  _481
REMARK  197  A    between atoms: _480  and  _483
REMARK  198  A    between atoms: _483  and  _484
REMARK  199  A    between atoms: _490  and  _492
REMARK  200  A    between atoms: _492  and  _493
REMARK  201  A    between atoms: _492  and  _495
REMARK  202  A    between atoms: _495  and  _496
REMARK  203  A    between atoms: _496  and  _497
REMARK  204  A    between atoms: _500  and  _502
REMARK  205  A    between atoms: _502  and  _503
REMARK  206  A    between atoms: _502  and  _505
REMARK  207  A    between atoms: _505  and  _506
REMARK  208  A    between atoms: _511  and  _513
REMARK  209  A    between atoms: _513  and  _514
REMARK  210  A    between atoms: _513  and  _516
REMARK  211  A    between atoms: _516  and  _517
REMARK  212  A    between atoms: _517  and  _518
REMARK  213  A    between atoms: _518  and  _519
REMARK  214  A    between atoms: _528  and  _530
REMARK  215  A    between atoms: _530  and  _531
REMARK  216  A    between atoms: _530  and  _533
REMARK  217  A    between atoms: _533  and  _534
REMARK  218  A    between atoms: _537  and  _539
REMARK  219  A    between atoms: _539  and  _540
REMARK  220  A    between atoms: _539  and  _542
REMARK  221  A    between atoms: _542  and  _543
REMARK  222  A    between atoms: _546  and  _548
REMARK  223  A    between atoms: _548  and  _549
REMARK  224  A    between atoms: _548  and  _551
REMARK  225  A    between atoms: _551  and  _552
REMARK  226  A    between atoms: _552  and  _553
REMARK  227  A    between atoms: _553  and  _554
REMARK  228  A    between atoms: _563  and  _565
REMARK  229  A    between atoms: _565  and  _566
REMARK  230  A    between atoms: _569  and  _571
REMARK  231  A    between atoms: _571  and  _572
REMARK  232  A    between atoms: _571  and  _574
REMARK  233  A    between atoms: _574  and  _575
REMARK  234  A    between atoms: _575  and  _576
REMARK  235  A    between atoms: _576  and  _577
REMARK  236  A    between atoms: _586  and  _588
REMARK  237  A    between atoms: _588  and  _589
REMARK                            x       y       z     vdW  Elec       q    Type
REMARK                         _______ _______ _______ _____ _____    ______ ____
ROOT
ATOM      1  C   LYS A   1       3.885   0.511   3.425  0.00  0.00    +0.238 C 
ATOM      2  O   LYS A   1       3.927  -0.247   4.400  0.00  0.00    -0.274 OA
ATOM      3  N   ASN A   2       3.778   0.072   2.182  0.00  0.00    -0.297 N 
ATOM      4  H   ASN A   2       3.810   0.747   1.391  0.00  0.00    +0.150 HD
ENDROOT
BRANCH   1   5
ATOM      5  CA  LYS A   1       3.974   2.025   3.587  0.00  0.00    +0.145 C 
BRANCH   5   6
ATOM      6  N   LYS A   1       4.830   2.609   2.556  0.00  0.00    -0.238 NA
ATOM      7  H   LYS A   1       4.449   3.379   1.970  0.00  0.00    +0.142 HD
ENDBRANCH   5   6
BRANCH   5   8
ATOM      8  CB  LYS A   1       2.582   2.657   3.530  0.00  0.00    +0.026 C 
BRANCH   8   9
ATOM      9  CG  LYS A   1       1.473   1.902   4.233  0.00  0.00    -0.000 C 
BRANCH   9  10
ATOM     10  CD  LYS A   1       0.123   2.425   3.759  0.00  0.00    -0.024 C 
BRANCH  10  11
ATOM     11  CE  LYS A   1      -1.018   1.508   4.177  0.00  0.00    -0.086 C 
BRANCH  11  12
ATOM     12  NZ  LYS A   1      -0.910   0.145   3.589  0.00  0.00    +0.380 N 
ATOM     13  HZ1 LYS A   1      -1.713  -0.434   3.908  0.00  0.00    -0.089 HD
ATOM     14  HZ2 LYS A   1      -0.020  -0.295   3.898  0.00  0.00    -0.089 HD
ATOM     15  HZ3 LYS A   1      -0.922   0.214   2.551  0.00  0.00    -0.089 HD
ENDBRANCH  11  12
ENDBRANCH  10  11
ENDBRANCH   9  10
ENDBRANCH   8   9
ENDBRANCH   5   8
ENDBRANCH   1   5
BRANCH   3  16
ATOM     16  CA  ASN A   2       3.616  -1.350   1.913  0.00  0.00    +0.158 C 
BRANCH  16  17
ATOM     17  C   ASN A   2       4.927  -2.144   1.790  0.00  0.00    +0.241 C 
ATOM     18  N   ALA A   3       6.048  -1.477   2.045  0.00  0.00    -0.298 N 
ATOM     19  H   ALA A   3       6.025  -0.438   2.073  0.00  0.00    +0.150 HD
ATOM     20  O   ASN A   2       4.915  -3.331   1.499  0.00  0.00    -0.273 OA
BRANCH  18  21
ATOM     21  CA  ALA A   3       7.307  -2.166   2.286  0.00  0.00    +0.137 C 
ATOM     22  CB  ALA A   3       8.425  -1.479   1.563  0.00  0.00    +0.030 C 
BRANCH  21  23
ATOM     23  C   ALA A   3       7.585  -2.209   3.792  0.00  0.00    +0.227 C 
ATOM     24  O   ALA A   3       7.962  -3.247   4.359  0.00  0.00    -0.286 OA
ENDBRANCH  21  23
ENDBRANCH  18  21
ENDBRANCH  16  17
BRANCH  16  25
ATOM     25  CB  ASN A   2       2.689  -1.571   0.723  0.00  0.00    +0.114 C 
BRANCH  25  26
ATOM     26  CG  ASN A   2       1.213  -1.364   1.093  0.00  0.00    +0.222 C 
ATOM     27  OD1 ASN A   2       0.867  -1.268   2.278  0.00  0.00    -0.275 OA
ATOM     28  ND2 ASN A   2       0.340  -1.311   0.085  0.00  0.00    -0.329 N 
ATOM     29 HD21 ASN A   2      -0.674  -1.185   0.281  0.00  0.00    +0.145 HD
ATOM     30 HD22 ASN A   2       0.673  -1.396  -0.897  0.00  0.00    +0.145 HD
ENDBRANCH  25  26
ENDBRANCH  16  25
ENDBRANCH   3  16
TORSDOF 13
REMARK  Name = ../refined-set-2016/3iss/3iss_pocket.pdb
REMARK  237 active torsions:
REMARK  status: ('A' for Active; 'I' for Inactive)
REMARK    1  A    between atoms: _1  and  _3
REMARK    2  A    between atoms: _3  and  _4
REMARK    3  A    between atoms: _3  and  _6
REMARK    4  A    between atoms: _6  and  _7
REMARK    5  A    between atoms: _7  and  _8
REMARK    6  A    between atoms: _8  and  _9
REMARK    7  A    between atoms: _9  and  _10
REMARK    8  A    between atoms: _14  and  _16
REMARK    9  A    between atoms: _16  and  _17
REMARK   10  A    between atoms: _16  and  _19
REMARK   11  A    between atoms: _19  and  _20
REMARK   12  A    between atoms: _25  and  _27
REMARK   13  A    between atoms: _27  and  _28
REMARK   14  A    between atoms: _31  and  _33
REMARK   15  A    between atoms: _33  and  _34
REMARK   16  A    between atoms: _33  and  _36
REMARK   17  A    between atoms: _36  and  _37
REMARK   18  A    between atoms: _41  and  _42
REMARK   19  A    between atoms: _47  and  _49
REMARK   20  A    between atoms: _49  and  _50
REMARK   21  A    between atoms: _49  and  _52
REMARK   22  A    between atoms: _52  and  _53
REMARK   23  A    between atoms: _56  and  _58
REMARK   24  A    between atoms: _58  and  _59
REMARK   25  A    between atoms: _58  and  _61
REMARK   26  A    between atoms: _61  and  _62
REMARK   27  A    between atoms: _62  and  _63
REMARK   28  A    between atoms: _65  and  _67
REMARK   29  A    between atoms: _67  and  _68
REMARK   30  A    between atoms: _67  and  _70
REMARK   31  A    between atoms: _70  and  _71
REMARK   32  A    between atoms: _71  and  _72
REMARK   33  A    between atoms: _72  and  _73
REMARK   34  A    between atoms: _82  and  _84
REMARK   35  A    between atoms: _84  and  _85
REMARK   36  A    between atoms: _88  and  _90
REMARK   37  A    between atoms: _90  and  _91
REMARK   38  A    between atoms: _90  and  _93
REMARK   39  A    between atoms: _93  and  _94
REMARK   40  A    between atoms: _96  and  _98
REMARK   41  A    between atoms: _98  and  _99
REMARK   42  A    between atoms: _98  and  _101
REMARK   43  A    between atoms: _101  and  _102
REMARK   44  A    between atoms: _105  and  _107
REMARK   45  A    between atoms: _107  and  _108
REMARK   46  A    between atoms: _107  and  _110
REMARK   47  A    between atoms: _110  and  _111
REMARK   48  A    between atoms: _121  and  _123
REMARK   49  A    between atoms: _123  and  _124
REMARK   50  A    between atoms: _123  and  _126
REMARK   51  A    between atoms: _128  and  _130
REMARK   52  A    between atoms: _130  and  _131
REMARK   53  A    between atoms: _130  and  _133
REMARK   54  A    between atoms: _133  and  _134
REMARK   55  A    between atoms: _137  and  _139
REMARK   56  A    between atoms: _139  and  _140
REMARK   57  A    between atoms: _142  and  _144
REMARK   58  A    between atoms: _144  and  _145
REMARK   59  A    between atoms: _148  and  _150
REMARK   60  A    between atoms: _150  and  _151
REMARK   61  A    between atoms: _150  and  _153
REMARK   62  A    between atoms: _153  and  _154
REMARK   63  A    between atoms: _154  and  _155
REMARK   64  A    between atoms: _155  and  _156
REMARK   65  A    between atoms: _166  and  _167
REMARK   66  A    between atoms: _172  and  _174
REMARK   67  A    between atoms: _174  and  _175
REMARK   68  A    between atoms: _174  and  _177
REMARK   69  A    between atoms: _180  and  _182
REMARK   70  A    between atoms: _182  and  _183
REMARK   71  A    between atoms: _182  and  _185
REMARK   72  A    between atoms: _185  and  _186
REMARK   73  A    between atoms: _189  and  _191
REMARK   74  A    between atoms: _191  and  _192
REMARK   75  A    between atoms: _191  and  _194
REMARK   76  A    between atoms: _194  and  _195
REMARK   77  A    between atoms: _198  and  _200
REMARK   78  A    between atoms: _200  and  _201
REMARK   79  A    between atoms: _200  and  _203
REMARK   80  A    between atoms: _203  and  _204
REMARK   81  A    between atoms: _209  and  _211
REMARK   82  A    between atoms: _211  and  _212
REMARK   83  A    between atoms: _211  and  _214
REMARK   84  A    between atoms: _214  and  _215
REMARK   85  A    between atoms: _218  and  _220
REMARK   86  A    between atoms: _220  and  _221
REMARK   87  A    between atoms: _220  and  _223
REMARK   88  A    between atoms: _223  and  _224
REMARK   89  A    between atoms: _226  and  _228
REMARK   90  A    between atoms: _228  and  _229
REMARK   91  A    between atoms: _231  and  _233
REMARK   92  A    between atoms: _233  and  _234
REMARK   93  A    between atoms: _233  and  _236
REMARK   94  A    between atoms: _236  and  _237
REMARK   95  A    between atoms: _237  and  _238
REMARK   96  A    between atoms: _240  and  _242
REMARK   97  A    between atoms: _242  and  _243
REMARK   98  A    between atoms: _242  and  _245
REMARK   99  A    between atoms: _245  and  _246
REMARK  100  A    between atoms: _249  and  _251
REMARK  101  A    between atoms: _251  and  _252
REMARK  102  A    between atoms: _251  and  _254
REMARK  103  A    between atoms: _254  and  _255
REMARK  104  A    between atoms: _255  and  _256
REMARK  105  A    between atoms: _256  and  _257
REMARK  106  A    between atoms: _257  and  _258
REMARK  107  A    between atoms: _262  and  _264
REMARK  108  A    between atoms: _264  and  _265
REMARK  109  A    between atoms: _264  and  _267
REMARK  110  A    between atoms: _270  and  _272
REMARK  111  A    between atoms: _272  and  _273
REMARK  112  A    between atoms: _272  and  _275
REMARK  113  A    between atoms: _275  and  _276
REMARK  114  A    between atoms: _278  and  _280
REMARK  115  A    between atoms: _280  and  _281
REMARK  116  A    between atoms: _280  and  _283
REMARK  117  A    between atoms: _286  and  _288
REMARK  118  A    between atoms: _288  and  _289
REMARK  119  A    between atoms: _291  and  _293
REMARK  120  A    between atoms: _293  and  _294
REMARK  121  A    between atoms: _297  and  _299
REMARK  122  A    between atoms: _299  and  _300
REMARK  123  A    between atoms: _299  and  _302
REMARK  124  A    between atoms: _302  and  _303
REMARK  125  A    between atoms: _306  and  _308
REMARK  126  A    between atoms: _308  and  _309
REMARK  127  A    between atoms: _308  and  _311
REMARK  128  A    between atoms: _314  and  _316
REMARK  129  A    between atoms: _316  and  _317
REMARK  130  A    between atoms: _316  and  _319
REMARK  131  A    between atoms: _319  and  _320
REMARK  132  A    between atoms: _323  and  _325
REMARK  133  A    between atoms: _325  and  _326
REMARK  134  A    between atoms: _329  and  _331
REMARK  135  A    between atoms: _331  and  _332
REMARK  136  A    between atoms: _331  and  _334
REMARK  137  A    between atoms: _334  and  _335
REMARK  138  A    between atoms: _335  and  _336
REMARK  139  A    between atoms: _339  and  _341
REMARK  140  A    between atoms: _341  and  _342
REMARK  141  A    between atoms: _341  and  _344
REMARK  142  A    between atoms: _344  and  _345
REMARK  143  A    between atoms: _345  and  _346
REMARK  144  A    between atoms: _349  and  _351
REMARK  145  A    between atoms: _351  and  _352
REMARK  146  A    between atoms: _351  and  _354
REMARK  147  A    between atoms: _354  and  _355
REMARK  148  A    between atoms: _358  and  _360
REMARK  149  A    between atoms: _360  and  _361
REMARK  150  A    between atoms: _360  and  _363
REMARK  151  A    between atoms: _363  and  _364
REMARK  152  A    between atoms: _367  and  _369
REMARK  153  A    between atoms: _369  and  _370
REMARK  154  A    between atoms: _369  and  _372
REMARK  155  A    between atoms: _372  and  _373
REMARK  156  A    between atoms: _373  and  _374
REMARK  157  A    between atoms: _374  and  _375
REMARK  158  A    between atoms: _384  and  _386
REMARK  159  A    between atoms: _386  and  _387
REMARK  160  A    between atoms: _386  and  _389
REMARK  161  A    between atoms: _389  and  _390
REMARK  162  A    between atoms: _393  and  _395
REMARK  163  A    between atoms: _395  and  _396
REMARK  164  A    between atoms: _400  and  _401
REMARK  165  A    between atoms: _406  and  _408
REMARK  166  A    between atoms: _408  and  _409
REMARK  167  A    between atoms: _408  and  _411
REMARK  168  A    between atoms: _411  and  _412
REMARK  169  A    between atoms: _418  and  _419
REMARK  170  A    between atoms: _424  and  _426
REMARK  171  A    between atoms: _426  and  _427
REMARK  172  A    between atoms: _426  and  _429
REMARK  173  A    between atoms: _429  and  _430
REMARK  174  A    between atoms: _433  and  _435
REMARK  175  A    between atoms: _435  and  _436
REMARK  176  A    between atoms: _435  and  _438
REMARK  177  A    between atoms: _438  and  _439
REMARK  178  A    between atoms: _442  and  _444
REMARK  179  A    between atoms: _444  and  _445
REMARK  180  A    between atoms: _444  and  _447
REMARK  181  A    between atoms: _447  and  _448
REMARK  182  A    between atoms: _448  and  _449
REMARK  183  A    between atoms: _451  and  _453
REMARK  184  A    between atoms: _453  and  _454
REMARK  185  A    between atoms: _453  and  _456
REMARK  186  A    between atoms: _456  and  _457
REMARK  187  A    between atoms: _457  and  _458
REMARK  188  A    between atoms: _461  and  _463
REMARK  189  A    between atoms: _463  and  _464
REMARK  190  A    between atoms: _463  and  _466
REMARK  191  A    between atoms: _466  and  _467
REMARK  192  A    between atoms: _470  and  _472
REMARK  193  A    between atoms: _472  and  _473
REMARK  194  A    between atoms: _472  and  _475
REMARK  195  A    between atoms: _478  and  _480
REMARK  196  A    between atoms: _480  and  _481
REMARK  197  A    between atoms: _480  and  _483
REMARK  198  A    between atoms: _483  and  _484
REMARK  199  A    between atoms: _490  and  _492
REMARK  200  A    between atoms: _492  and  _493
REMARK  201  A    between atoms: _492  and  _495
REMARK  202  A    between atoms: _495  and  _496
REMARK  203  A    between atoms: _496  and  _497
REMARK  204  A    between atoms: _500  and  _502
REMARK  205  A    between atoms: _502  and  _503
REMARK  206  A    between atoms: _502  and  _505
REMARK  207  A    between atoms: _505  and  _506
REMARK  208  A    between atoms: _511  and  _513
REMARK  209  A    between atoms: _513  and  _514
REMARK  210  A    between atoms: _513  and  _516
REMARK  211  A    between atoms: _516  and  _517
REMARK  212  A    between atoms: _517  and  _518
REMARK  213  A    between atoms: _518  and  _519
REMARK  214  A    between atoms: _528  and  _530
REMARK  215  A    between atoms: _530  and  _531
REMARK  216  A    between atoms: _530  and  _533
REMARK  217  A    between atoms: _533  and  _534
REMARK  218  A    between atoms: _537  and  _539
REMARK  219  A    between atoms: _539  and  _540
REMARK  220  A    between atoms: _539  and  _542
REMARK  221  A    between atoms: _542  and  _543
REMARK  222  A    between atoms: _546  and  _548
REMARK  223  A    between atoms: _548  and  _549
REMARK  224  A    between atoms: _548  and  _551
REMARK  225  A    between atoms: _551  and  _552
REMARK  226  A    between atoms: _552  and  _553
REMARK  227  A    between atoms: _553  and  _554
REMARK  228  A    between atoms: _563  and  _565
REMARK  229  A    between atoms: _565  and  _566
REMARK  230  A    between atoms: _569  and  _571
REMARK  231  A    between atoms: _571  and  _572
REMARK  232  A    between atoms: _571  and  _574
REMARK  233  A    between atoms: _574  and  _575
REMARK  234  A    between atoms: _575  and  _576
REMARK  235  A    between atoms: _576  and  _577
REMARK  236  A    between atoms: _586  and  _588
REMARK  237  A    between atoms: _588  and  _589
REMARK                            x       y       z     vdW  Elec       q    Type
REMARK                         _______ _______ _______ _____ _____    ______ ____
ROOT
ATOM      1  C   LEU A   1       5.149  -4.698   6.864  0.00  0.00    +0.241 C 
ATOM      2  O   LEU A   1       5.282  -5.314   7.913  0.00  0.00    -0.273 OA
ATOM      3  N   PRO A   2       5.449  -5.228   5.662  0.00  0.00    -0.273 N 
ATOM      4  CA  PRO A   2       5.936  -6.609   5.595  0.00  0.00    +0.140 C 
ATOM      5  CB  PRO A   2       6.107  -6.847   4.080  0.00  0.00    +0.030 C 
ATOM      6  CG  PRO A   2       5.379  -5.758   3.396  0.00  0.00    +0.024 C 
ATOM      7  CD  PRO A   2       5.402  -4.599   4.328  0.00  0.00    +0.094 C 
ENDROOT
BRANCH   4   8
ATOM      8  C   PRO A   2       7.282  -6.773   6.314  0.00  0.00    +0.227 C 
ATOM      9  O   PRO A   2       7.563  -7.790   6.938  0.00  0.00    -0.286 OA
ENDBRANCH   4   8
BRANCH   1  10
ATOM     10  CA  LEU A   1       4.622  -3.278   6.902  0.00  0.00    +0.145 C 
BRANCH  10  11
ATOM     11  N   LEU A   1       5.470  -2.298   6.217  0.00  0.00    -0.238 NA
ATOM     12  H   LEU A   1       5.074  -1.736   5.437  0.00  0.00    +0.142 HD
ENDBRANCH  10  11
BRANCH  10  13
ATOM     13  CB  LEU A   1       3.164  -3.220   6.439  0.00  0.00    +0.026 C 
BRANCH  13  14
ATOM     14  CG  LEU A   1       2.221  -2.398   7.332  0.00  0.00    +0.002 C 
ATOM     15  CD2 LEU A   1       2.628  -0.938   7.398  0.00  0.00    +0.000 C 
ATOM     16  CD1 LEU A   1       0.771  -2.527   6.848  0.00  0.00    +0.000 C 
ENDBRANCH  13  14
ENDBRANCH  10  13
ENDBRANCH   1  10
TORSDOF 5
REMARK  Name = ../refined-set-2016/3iss/3iss_pocket.pdb
REMARK  237 active torsions:
REMARK  status: ('A' for Active; 'I' for Inactive)
REMARK    1  A    between atoms: _1  and  _3
REMARK    2  A    between atoms: _3  and  _4
REMARK    3  A    between atoms: _3  and  _6
REMARK    4  A    between atoms: _6  and  _7
REMARK    5  A    between atoms: _7  and  _8
REMARK    6  A    between atoms: _8  and  _9
REMARK    7  A    between atoms: _9  and  _10
REMARK    8  A    between atoms: _14  and  _16
REMARK    9  A    between atoms: _16  and  _17
REMARK   10  A    between atoms: _16  and  _19
REMARK   11  A    between atoms: _19  and  _20
REMARK   12  A    between atoms: _25  and  _27
REMARK   13  A    between atoms: _27  and  _28
REMARK   14  A    between atoms: _31  and  _33
REMARK   15  A    between atoms: _33  and  _34
REMARK   16  A    between atoms: _33  and  _36
REMARK   17  A    between atoms: _36  and  _37
REMARK   18  A    between atoms: _41  and  _42
REMARK   19  A    between atoms: _47  and  _49
REMARK   20  A    between atoms: _49  and  _50
REMARK   21  A    between atoms: _49  and  _52
REMARK   22  A    between atoms: _52  and  _53
REMARK   23  A    between atoms: _56  and  _58
REMARK   24  A    between atoms: _58  and  _59
REMARK   25  A    between atoms: _58  and  _61
REMARK   26  A    between atoms: _61  and  _62
REMARK   27  A    between atoms: _62  and  _63
REMARK   28  A    between atoms: _65  and  _67
REMARK   29  A    between atoms: _67  and  _68
REMARK   30  A    between atoms: _67  and  _70
REMARK   31  A    between atoms: _70  and  _71
REMARK   32  A    between atoms: _71  and  _72
REMARK   33  A    between atoms: _72  and  _73
REMARK   34  A    between atoms: _82  and  _84
REMARK   35  A    between atoms: _84  and  _85
REMARK   36  A    between atoms: _88  and  _90
REMARK   37  A    between atoms: _90  and  _91
REMARK   38  A    between atoms: _90  and  _93
REMARK   39  A    between atoms: _93  and  _94
REMARK   40  A    between atoms: _96  and  _98
REMARK   41  A    between atoms: _98  and  _99
REMARK   42  A    between atoms: _98  and  _101
REMARK   43  A    between atoms: _101  and  _102
REMARK   44  A    between atoms: _105  and  _107
REMARK   45  A    between atoms: _107  and  _108
REMARK   46  A    between atoms: _107  and  _110
REMARK   47  A    between atoms: _110  and  _111
REMARK   48  A    between atoms: _121  and  _123
REMARK   49  A    between atoms: _123  and  _124
REMARK   50  A    between atoms: _123  and  _126
REMARK   51  A    between atoms: _128  and  _130
REMARK   52  A    between atoms: _130  and  _131
REMARK   53  A    between atoms: _130  and  _133
REMARK   54  A    between atoms: _133  and  _134
REMARK   55  A    between atoms: _137  and  _139
REMARK   56  A    between atoms: _139  and  _140
REMARK   57  A    between atoms: _142  and  _144
REMARK   58  A    between atoms: _144  and  _145
REMARK   59  A    between atoms: _148  and  _150
REMARK   60  A    between atoms: _150  and  _151
REMARK   61  A    between atoms: _150  and  _153
REMARK   62  A    between atoms: _153  and  _154
REMARK   63  A    between atoms: _154  and  _155
REMARK   64  A    between atoms: _155  and  _156
REMARK   65  A    between atoms: _166  and  _167
REMARK   66  A    between atoms: _172  and  _174
REMARK   67  A    between atoms: _174  and  _175
REMARK   68  A    between atoms: _174  and  _177
REMARK   69  A    between atoms: _180  and  _182
REMARK   70  A    between atoms: _182  and  _183
REMARK   71  A    between atoms: _182  and  _185
REMARK   72  A    between atoms: _185  and  _186
REMARK   73  A    between atoms: _189  and  _191
REMARK   74  A    between atoms: _191  and  _192
REMARK   75  A    between atoms: _191  and  _194
REMARK   76  A    between atoms: _194  and  _195
REMARK   77  A    between atoms: _198  and  _200
REMARK   78  A    between atoms: _200  and  _201
REMARK   79  A    between atoms: _200  and  _203
REMARK   80  A    between atoms: _203  and  _204
REMARK   81  A    between atoms: _209  and  _211
REMARK   82  A    between atoms: _211  and  _212
REMARK   83  A    between atoms: _211  and  _214
REMARK   84  A    between atoms: _214  and  _215
REMARK   85  A    between atoms: _218  and  _220
REMARK   86  A    between atoms: _220  and  _221
REMARK   87  A    between atoms: _220  and  _223
REMARK   88  A    between atoms: _223  and  _224
REMARK   89  A    between atoms: _226  and  _228
REMARK   90  A    between atoms: _228  and  _229
REMARK   91  A    between atoms: _231  and  _233
REMARK   92  A    between atoms: _233  and  _234
REMARK   93  A    between atoms: _233  and  _236
REMARK   94  A    between atoms: _236  and  _237
REMARK   95  A    between atoms: _237  and  _238
REMARK   96  A    between atoms: _240  and  _242
REMARK   97  A    between atoms: _242  and  _243
REMARK   98  A    between atoms: _242  and  _245
REMARK   99  A    between atoms: _245  and  _246
REMARK  100  A    between atoms: _249  and  _251
REMARK  101  A    between atoms: _251  and  _252
REMARK  102  A    between atoms: _251  and  _254
REMARK  103  A    between atoms: _254  and  _255
REMARK  104  A    between atoms: _255  and  _256
REMARK  105  A    between atoms: _256  and  _257
REMARK  106  A    between atoms: _257  and  _258
REMARK  107  A    between atoms: _262  and  _264
REMARK  108  A    between atoms: _264  and  _265
REMARK  109  A    between atoms: _264  and  _267
REMARK  110  A    between atoms: _270  and  _272
REMARK  111  A    between atoms: _272  and  _273
REMARK  112  A    between atoms: _272  and  _275
REMARK  113  A    between atoms: _275  and  _276
REMARK  114  A    between atoms: _278  and  _280
REMARK  115  A    between atoms: _280  and  _281
REMARK  116  A    between atoms: _280  and  _283
REMARK  117  A    between atoms: _286  and  _288
REMARK  118  A    between atoms: _288  and  _289
REMARK  119  A    between atoms: _291  and  _293
REMARK  120  A    between atoms: _293  and  _294
REMARK  121  A    between atoms: _297  and  _299
REMARK  122  A    between atoms: _299  and  _300
REMARK  123  A    between atoms: _299  and  _302
REMARK  124  A    between atoms: _302  and  _303
REMARK  125  A    between atoms: _306  and  _308
REMARK  126  A    between atoms: _308  and  _309
REMARK  127  A    between atoms: _308  and  _311
REMARK  128  A    between atoms: _314  and  _316
REMARK  129  A    between atoms: _316  and  _317
REMARK  130  A    between atoms: _316  and  _319
REMARK  131  A    between atoms: _319  and  _320
REMARK  132  A    between atoms: _323  and  _325
REMARK  133  A    between atoms: _325  and  _326
REMARK  134  A    between atoms: _329  and  _331
REMARK  135  A    between atoms: _331  and  _332
REMARK  136  A    between atoms: _331  and  _334
REMARK  137  A    between atoms: _334  and  _335
REMARK  138  A    between atoms: _335  and  _336
REMARK  139  A    between atoms: _339  and  _341
REMARK  140  A    between atoms: _341  and  _342
REMARK  141  A    between atoms: _341  and  _344
REMARK  142  A    between atoms: _344  and  _345
REMARK  143  A    between atoms: _345  and  _346
REMARK  144  A    between atoms: _349  and  _351
REMARK  145  A    between atoms: _351  and  _352
REMARK  146  A    between atoms: _351  and  _354
REMARK  147  A    between atoms: _354  and  _355
REMARK  148  A    between atoms: _358  and  _360
REMARK  149  A    between atoms: _360  and  _361
REMARK  150  A    between atoms: _360  and  _363
REMARK  151  A    between atoms: _363  and  _364
REMARK  152  A    between atoms: _367  and  _369
REMARK  153  A    between atoms: _369  and  _370
REMARK  154  A    between atoms: _369  and  _372
REMARK  155  A    between atoms: _372  and  _373
REMARK  156  A    between atoms: _373  and  _374
REMARK  157  A    between atoms: _374  and  _375
REMARK  158  A    between atoms: _384  and  _386
REMARK  159  A    between atoms: _386  and  _387
REMARK  160  A    between atoms: _386  and  _389
REMARK  161  A    between atoms: _389  and  _390
REMARK  162  A    between atoms: _393  and  _395
REMARK  163  A    between atoms: _395  and  _396
REMARK  164  A    between atoms: _400  and  _401
REMARK  165  A    between atoms: _406  and  _408
REMARK  166  A    between atoms: _408  and  _409
REMARK  167  A    between atoms: _408  and  _411
REMARK  168  A    between atoms: _411  and  _412
REMARK  169  A    between atoms: _418  and  _419
REMARK  170  A    between atoms: _424  and  _426
REMARK  171  A    between atoms: _426  and  _427
REMARK  172  A    between atoms: _426  and  _429
REMARK  173  A    between atoms: _429  and  _430
REMARK  174  A    between atoms: _433  and  _435
REMARK  175  A    between atoms: _435  and  _436
REMARK  176  A    between atoms: _435  and  _438
REMARK  177  A    between atoms: _438  and  _439
REMARK  178  A    between atoms: _442  and  _444
REMARK  179  A    between atoms: _444  and  _445
REMARK  180  A    between atoms: _444  and  _447
REMARK  181  A    between atoms: _447  and  _448
REMARK  182  A    between atoms: _448  and  _449
REMARK  183  A    between atoms: _451  and  _453
REMARK  184  A    between atoms: _453  and  _454
REMARK  185  A    between atoms: _453  and  _456
REMARK  186  A    between atoms: _456  and  _457
REMARK  187  A    between atoms: _457  and  _458
REMARK  188  A    between atoms: _461  and  _463
REMARK  189  A    between atoms: _463  and  _464
REMARK  190  A    between atoms: _463  and  _466
REMARK  191  A    between atoms: _466  and  _467
REMARK  192  A    between atoms: _470  and  _472
REMARK  193  A    between atoms: _472  and  _473
REMARK  194  A    between atoms: _472  and  _475
REMARK  195  A    between atoms: _478  and  _480
REMARK  196  A    between atoms: _480  and  _481
REMARK  197  A    between atoms: _480  and  _483
REMARK  198  A    between atoms: _483  and  _484
REMARK  199  A    between atoms: _490  and  _492
REMARK  200  A    between atoms: _492  and  _493
REMARK  201  A    between atoms: _492  and  _495
REMARK  202  A    between atoms: _495  and  _496
REMARK  203  A    between atoms: _496  and  _497
REMARK  204  A    between atoms: _500  and  _502
REMARK  205  A    between atoms: _502  and  _503
REMARK  206  A    between atoms: _502  and  _505
REMARK  207  A    between atoms: _505  and  _506
REMARK  208  A    between atoms: _511  and  _513
REMARK  209  A    between atoms: _513  and  _514
REMARK  210  A    between atoms: _513  and  _516
REMARK  211  A    between atoms: _516  and  _517
REMARK  212  A    between atoms: _517  and  _518
REMARK  213  A    between atoms: _518  and  _519
REMARK  214  A    between atoms: _528  and  _530
REMARK  215  A    between atoms: _530  and  _531
REMARK  216  A    between atoms: _530  and  _533
REMARK  217  A    between atoms: _533  and  _534
REMARK  218  A    between atoms: _537  and  _539
REMARK  219  A    between atoms: _539  and  _540
REMARK  220  A    between atoms: _539  and  _542
REMARK  221  A    between atoms: _542  and  _543
REMARK  222  A    between atoms: _546  and  _548
REMARK  223  A    between atoms: _548  and  _549
REMARK  224  A    between atoms: _548  and  _551
REMARK  225  A    between atoms: _551  and  _552
REMARK  226  A    between atoms: _552  and  _553
REMARK  227  A    between atoms: _553  and  _554
REMARK  228  A    between atoms: _563  and  _565
REMARK  229  A    between atoms: _565  and  _566
REMARK  230  A    between atoms: _569  and  _571
REMARK  231  A    between atoms: _571  and  _572
REMARK  232  A    between atoms: _571  and  _574
REMARK  233  A    between atoms: _574  and  _575
REMARK  234  A    between atoms: _575  and  _576
REMARK  235  A    between atoms: _576  and  _577
REMARK  236  A    between atoms: _586  and  _588
REMARK  237  A    between atoms: _588  and  _589
REMARK                            x       y       z     vdW  Elec       q    Type
REMARK                         _______ _______ _______ _____ _____    ______ ____
ROOT
ATOM      1  CA  ASP A   1      -0.719   1.374   9.774  0.00  0.00    +0.144 C 
ENDROOT
BRANCH   1   2
ATOM      2  N   ASP A   1      -0.964   2.794  10.041  0.00  0.00    -0.239 NA
ATOM      3  H   ASP A   1      -1.026   3.460   9.244  0.00  0.00    +0.142 HD
ENDBRANCH   1   2
BRANCH   1   4
ATOM      4  C   ASP A   1       0.618   0.892  10.371  0.00  0.00    +0.225 C 
ATOM      5  O   ASP A   1       0.742  -0.271  10.767  0.00  0.00    -0.287 OA
ENDBRANCH   1   4
BRANCH   1   6
ATOM      6  CB  ASP A   1      -0.764   1.073   8.265  0.00  0.00    +0.139 C 
BRANCH   6   7
ATOM      7  CG  ASP A   1      -2.149   0.676   7.770  0.00  0.00    +0.367 C 
ATOM      8  OD2 ASP A   1      -3.128   0.751   8.524  0.00  0.00    -0.246 OA
ATOM      9  OD1 ASP A   1      -2.262   0.284   6.593  0.00  0.00    -0.246 OA
ENDBRANCH   6   7
ENDBRANCH   1   6
TORSDOF 4
REMARK  Name = ../refined-set-2016/3iss/3iss_pocket.pdb
REMARK  237 active torsions:
REMARK  status: ('A' for Active; 'I' for Inactive)
REMARK    1  A    between atoms: _1  and  _3
REMARK    2  A    between atoms: _3  and  _4
REMARK    3  A    between atoms: _3  and  _6
REMARK    4  A    between atoms: _6  and  _7
REMARK    5  A    between atoms: _7  and  _8
REMARK    6  A    between atoms: _8  and  _9
REMARK    7  A    between atoms: _9  and  _10
REMARK    8  A    between atoms: _14  and  _16
REMARK    9  A    between atoms: _16  and  _17
REMARK   10  A    between atoms: _16  and  _19
REMARK   11  A    between atoms: _19  and  _20
REMARK   12  A    between atoms: _25  and  _27
REMARK   13  A    between atoms: _27  and  _28
REMARK   14  A    between atoms: _31  and  _33
REMARK   15  A    between atoms: _33  and  _34
REMARK   16  A    between atoms: _33  and  _36
REMARK   17  A    between atoms: _36  and  _37
REMARK   18  A    between atoms: _41  and  _42
REMARK   19  A    between atoms: _47  and  _49
REMARK   20  A    between atoms: _49  and  _50
REMARK   21  A    between atoms: _49  and  _52
REMARK   22  A    between atoms: _52  and  _53
REMARK   23  A    between atoms: _56  and  _58
REMARK   24  A    between atoms: _58  and  _59
REMARK   25  A    between atoms: _58  and  _61
REMARK   26  A    between atoms: _61  and  _62
REMARK   27  A    between atoms: _62  and  _63
REMARK   28  A    between atoms: _65  and  _67
REMARK   29  A    between atoms: _67  and  _68
REMARK   30  A    between atoms: _67  and  _70
REMARK   31  A    between atoms: _70  and  _71
REMARK   32  A    between atoms: _71  and  _72
REMARK   33  A    between atoms: _72  and  _73
REMARK   34  A    between atoms: _82  and  _84
REMARK   35  A    between atoms: _84  and  _85
REMARK   36  A    between atoms: _88  and  _90
REMARK   37  A    between atoms: _90  and  _91
REMARK   38  A    between atoms: _90  and  _93
REMARK   39  A    between atoms: _93  and  _94
REMARK   40  A    between atoms: _96  and  _98
REMARK   41  A    between atoms: _98  and  _99
REMARK   42  A    between atoms: _98  and  _101
REMARK   43  A    between atoms: _101  and  _102
REMARK   44  A    between atoms: _105  and  _107
REMARK   45  A    between atoms: _107  and  _108
REMARK   46  A    between atoms: _107  and  _110
REMARK   47  A    between atoms: _110  and  _111
REMARK   48  A    between atoms: _121  and  _123
REMARK   49  A    between atoms: _123  and  _124
REMARK   50  A    between atoms: _123  and  _126
REMARK   51  A    between atoms: _128  and  _130
REMARK   52  A    between atoms: _130  and  _131
REMARK   53  A    between atoms: _130  and  _133
REMARK   54  A    between atoms: _133  and  _134
REMARK   55  A    between atoms: _137  and  _139
REMARK   56  A    between atoms: _139  and  _140
REMARK   57  A    between atoms: _142  and  _144
REMARK   58  A    between atoms: _144  and  _145
REMARK   59  A    between atoms: _148  and  _150
REMARK   60  A    between atoms: _150  and  _151
REMARK   61  A    between atoms: _150  and  _153
REMARK   62  A    between atoms: _153  and  _154
REMARK   63  A    between atoms: _154  and  _155
REMARK   64  A    between atoms: _155  and  _156
REMARK   65  A    between atoms: _166  and  _167
REMARK   66  A    between atoms: _172  and  _174
REMARK   67  A    between atoms: _174  and  _175
REMARK   68  A    between atoms: _174  and  _177
REMARK   69  A    between atoms: _180  and  _182
REMARK   70  A    between atoms: _182  and  _183
REMARK   71  A    between atoms: _182  and  _185
REMARK   72  A    between atoms: _185  and  _186
REMARK   73  A    between atoms: _189  and  _191
REMARK   74  A    between atoms: _191  and  _192
REMARK   75  A    between atoms: _191  and  _194
REMARK   76  A    between atoms: _194  and  _195
REMARK   77  A    between atoms: _198  and  _200
REMARK   78  A    between atoms: _200  and  _201
REMARK   79  A    between atoms: _200  and  _203
REMARK   80  A    between atoms: _203  and  _204
REMARK   81  A    between atoms: _209  and  _211
REMARK   82  A    between atoms: _211  and  _212
REMARK   83  A    between atoms: _211  and  _214
REMARK   84  A    between atoms: _214  and  _215
REMARK   85  A    between atoms: _218  and  _220
REMARK   86  A    between atoms: _220  and  _221
REMARK   87  A    between atoms: _220  and  _223
REMARK   88  A    between atoms: _223  and  _224
REMARK   89  A    between atoms: _226  and  _228
REMARK   90  A    between atoms: _228  and  _229
REMARK   91  A    between atoms: _231  and  _233
REMARK   92  A    between atoms: _233  and  _234
REMARK   93  A    between atoms: _233  and  _236
REMARK   94  A    between atoms: _236  and  _237
REMARK   95  A    between atoms: _237  and  _238
REMARK   96  A    between atoms: _240  and  _242
REMARK   97  A    between atoms: _242  and  _243
REMARK   98  A    between atoms: _242  and  _245
REMARK   99  A    between atoms: _245  and  _246
REMARK  100  A    between atoms: _249  and  _251
REMARK  101  A    between atoms: _251  and  _252
REMARK  102  A    between atoms: _251  and  _254
REMARK  103  A    between atoms: _254  and  _255
REMARK  104  A    between atoms: _255  and  _256
REMARK  105  A    between atoms: _256  and  _257
REMARK  106  A    between atoms: _257  and  _258
REMARK  107  A    between atoms: _262  and  _264
REMARK  108  A    between atoms: _264  and  _265
REMARK  109  A    between atoms: _264  and  _267
REMARK  110  A    between atoms: _270  and  _272
REMARK  111  A    between atoms: _272  and  _273
REMARK  112  A    between atoms: _272  and  _275
REMARK  113  A    between atoms: _275  and  _276
REMARK  114  A    between atoms: _278  and  _280
REMARK  115  A    between atoms: _280  and  _281
REMARK  116  A    between atoms: _280  and  _283
REMARK  117  A    between atoms: _286  and  _288
REMARK  118  A    between atoms: _288  and  _289
REMARK  119  A    between atoms: _291  and  _293
REMARK  120  A    between atoms: _293  and  _294
REMARK  121  A    between atoms: _297  and  _299
REMARK  122  A    between atoms: _299  and  _300
REMARK  123  A    between atoms: _299  and  _302
REMARK  124  A    between atoms: _302  and  _303
REMARK  125  A    between atoms: _306  and  _308
REMARK  126  A    between atoms: _308  and  _309
REMARK  127  A    between atoms: _308  and  _311
REMARK  128  A    between atoms: _314  and  _316
REMARK  129  A    between atoms: _316  and  _317
REMARK  130  A    between atoms: _316  and  _319
REMARK  131  A    between atoms: _319  and  _320
REMARK  132  A    between atoms: _323  and  _325
REMARK  133  A    between atoms: _325  and  _326
REMARK  134  A    between atoms: _329  and  _331
REMARK  135  A    between atoms: _331  and  _332
REMARK  136  A    between atoms: _331  and  _334
REMARK  137  A    between atoms: _334  and  _335
REMARK  138  A    between atoms: _335  and  _336
REMARK  139  A    between atoms: _339  and  _341
REMARK  140  A    between atoms: _341  and  _342
REMARK  141  A    between atoms: _341  and  _344
REMARK  142  A    between atoms: _344  and  _345
REMARK  143  A    between atoms: _345  and  _346
REMARK  144  A    between atoms: _349  and  _351
REMARK  145  A    between atoms: _351  and  _352
REMARK  146  A    between atoms: _351  and  _354
REMARK  147  A    between atoms: _354  and  _355
REMARK  148  A    between atoms: _358  and  _360
REMARK  149  A    between atoms: _360  and  _361
REMARK  150  A    between atoms: _360  and  _363
REMARK  151  A    between atoms: _363  and  _364
REMARK  152  A    between atoms: _367  and  _369
REMARK  153  A    between atoms: _369  and  _370
REMARK  154  A    between atoms: _369  and  _372
REMARK  155  A    between atoms: _372  and  _373
REMARK  156  A    between atoms: _373  and  _374
REMARK  157  A    between atoms: _374  and  _375
REMARK  158  A    between atoms: _384  and  _386
REMARK  159  A    between atoms: _386  and  _387
REMARK  160  A    between atoms: _386  and  _389
REMARK  161  A    between atoms: _389  and  _390
REMARK  162  A    between atoms: _393  and  _395
REMARK  163  A    between atoms: _395  and  _396
REMARK  164  A    between atoms: _400  and  _401
REMARK  165  A    between atoms: _406  and  _408
REMARK  166  A    between atoms: _408  and  _409
REMARK  167  A    between atoms: _408  and  _411
REMARK  168  A    between atoms: _411  and  _412
REMARK  169  A    between atoms: _418  and  _419
REMARK  170  A    between atoms: _424  and  _426
REMARK  171  A    between atoms: _426  and  _427
REMARK  172  A    between atoms: _426  and  _429
REMARK  173  A    between atoms: _429  and  _430
REMARK  174  A    between atoms: _433  and  _435
REMARK  175  A    between atoms: _435  and  _436
REMARK  176  A    between atoms: _435  and  _438
REMARK  177  A    between atoms: _438  and  _439
REMARK  178  A    between atoms: _442  and  _444
REMARK  179  A    between atoms: _444  and  _445
REMARK  180  A    between atoms: _444  and  _447
REMARK  181  A    between atoms: _447  and  _448
REMARK  182  A    between atoms: _448  and  _449
REMARK  183  A    between atoms: _451  and  _453
REMARK  184  A    between atoms: _453  and  _454
REMARK  185  A    between atoms: _453  and  _456
REMARK  186  A    between atoms: _456  and  _457
REMARK  187  A    between atoms: _457  and  _458
REMARK  188  A    between atoms: _461  and  _463
REMARK  189  A    between atoms: _463  and  _464
REMARK  190  A    between atoms: _463  and  _466
REMARK  191  A    between atoms: _466  and  _467
REMARK  192  A    between atoms: _470  and  _472
REMARK  193  A    between atoms: _472  and  _473
REMARK  194  A    between atoms: _472  and  _475
REMARK  195  A    between atoms: _478  and  _480
REMARK  196  A    between atoms: _480  and  _481
REMARK  197  A    between atoms: _480  and  _483
REMARK  198  A    between atoms: _483  and  _484
REMARK  199  A    between atoms: _490  and  _492
REMARK  200  A    between atoms: _492  and  _493
REMARK  201  A    between atoms: _492  and  _495
REMARK  202  A    between atoms: _495  and  _496
REMARK  203  A    between atoms: _496  and  _497
REMARK  204  A    between atoms: _500  and  _502
REMARK  205  A    between atoms: _502  and  _503
REMARK  206  A    between atoms: _502  and  _505
REMARK  207  A    between atoms: _505  and  _506
REMARK  208  A    between atoms: _511  and  _513
REMARK  209  A    between atoms: _513  and  _514
REMARK  210  A    between atoms: _513  and  _516
REMARK  211  A    between atoms: _516  and  _517
REMARK  212  A    between atoms: _517  and  _518
REMARK  213  A    between atoms: _518  and  _519
REMARK  214  A    between atoms: _528  and  _530
REMARK  215  A    between atoms: _530  and  _531
REMARK  216  A    between atoms: _530  and  _533
REMARK  217  A    between atoms: _533  and  _534
REMARK  218  A    between atoms: _537  and  _539
REMARK  219  A    between atoms: _539  and  _540
REMARK  220  A    between atoms: _539  and  _542
REMARK  221  A    between atoms: _542  and  _543
REMARK  222  A    between atoms: _546  and  _548
REMARK  223  A    between atoms: _548  and  _549
REMARK  224  A    between atoms: _548  and  _551
REMARK  225  A    between atoms: _551  and  _552
REMARK  226  A    between atoms: _552  and  _553
REMARK  227  A    between atoms: _553  and  _554
REMARK  228  A    between atoms: _563  and  _565
REMARK  229  A    between atoms: _565  and  _566
REMARK  230  A    between atoms: _569  and  _571
REMARK  231  A    between atoms: _571  and  _572
REMARK  232  A    between atoms: _571  and  _574
REMARK  233  A    between atoms: _574  and  _575
REMARK  234  A    between atoms: _575  and  _576
REMARK  235  A    between atoms: _576  and  _577
REMARK  236  A    between atoms: _586  and  _588
REMARK  237  A    between atoms: _588  and  _589
REMARK                            x       y       z     vdW  Elec       q    Type
REMARK                         _______ _______ _______ _____ _____    ______ ____
ROOT
ATOM      1  C   ALA A   3      -1.585  -7.756   8.304  0.00  0.00    +0.241 C 
ATOM      2  N   SER A   4      -2.156  -7.601   9.495  0.00  0.00    -0.295 N 
ATOM      3  H   SER A   4      -2.940  -6.924   9.588  0.00  0.00    +0.150 HD
ATOM      4  O   ALA A   3      -0.564  -8.421   8.140  0.00  0.00    -0.273 OA
ENDROOT
BRANCH   1   5
ATOM      5  CA  ALA A   3      -2.266  -7.059   7.106  0.00  0.00    +0.149 C 
ATOM      6  CB  ALA A   3      -1.474  -5.829   6.649  0.00  0.00    +0.031 C 
BRANCH   5   9
ATOM      7  C   ARG A   2      -4.565  -7.667   7.551  0.00  0.00    +0.241 C 
ATOM      8  O   ARG A   2      -4.291  -8.864   7.445  0.00  0.00    -0.273 OA
ATOM      9  N   ALA A   3      -3.658  -6.711   7.375  0.00  0.00    -0.297 N 
ATOM     10  H   ALA A   3      -3.941  -5.712   7.429  0.00  0.00    +0.150 HD
BRANCH   7  11
ATOM     11  CA  ARG A   2      -5.990  -7.225   7.930  0.00  0.00    +0.149 C 
BRANCH  11  14
ATOM     12  C   MET A   1      -5.488  -5.363   9.424  0.00  0.00    +0.238 C 
ATOM     13  O   MET A   1      -4.696  -6.047  10.059  0.00  0.00    -0.274 OA
ATOM     14  N   ARG A   2      -6.105  -5.814   8.332  0.00  0.00    -0.297 N 
ATOM     15  H   ARG A   2      -6.675  -5.161   7.757  0.00  0.00    +0.150 HD
BRANCH  12  16
ATOM     16  CA  MET A   1      -5.783  -3.927   9.868  0.00  0.00    +0.146 C 
BRANCH  16  17
ATOM     17  N   MET A   1      -6.773  -3.879  10.952  0.00  0.00    -0.238 NA
ATOM     18  H   MET A   1      -6.955  -4.742  11.503  0.00  0.00    +0.142 HD
ENDBRANCH  16  17
BRANCH  16  19
ATOM     19  CB  MET A   1      -4.485  -3.240  10.294  0.00  0.00    +0.038 C 
BRANCH  19  20
ATOM     20  CG  MET A   1      -3.504  -3.013   9.164  0.00  0.00    +0.060 C 
BRANCH  20  21
ATOM     21  SD  MET A   1      -1.873  -2.398   9.654  0.00  0.00    -0.139 S 
ATOM     22  CE  MET A   1      -1.231  -3.852  10.511  0.00  0.00    +0.069 C 
ENDBRANCH  20  21
ENDBRANCH  19  20
ENDBRANCH  16  19
ENDBRANCH  12  16
ENDBRANCH  11  14
BRANCH  11  23
ATOM     23  CB  ARG A   2      -7.009  -7.612   6.835  0.00  0.00    +0.033 C 
BRANCH  23  24
ATOM     24  CG  ARG A   2      -6.761  -6.996   5.490  0.00  0.00    +0.045 C 
BRANCH  24  25
ATOM     25  CD  ARG A   2      -8.049  -6.950   4.669  0.00  0.00    +0.174 C 
BRANCH  25  26
ATOM     26  NE  ARG A   2      -8.477  -8.270   4.254  0.00  0.00    -0.265 N 
ATOM     27  CZ  ARG A   2      -9.588  -8.869   4.671  0.00  0.00    +0.342 C 
ATOM     28  NH2 ARG A   2     -10.412  -8.258   5.516  0.00  0.00    -0.292 N 
ATOM     29 HH21 ARG A   2     -10.190  -7.301   5.858  0.00  0.00    +0.255 HD
ATOM     30 HH22 ARG A   2     -11.278  -8.737   5.835  0.00  0.00    +0.255 HD
ATOM     31  NH1 ARG A   2      -9.877 -10.090   4.231  0.00  0.00    -0.292 N 
ATOM     32 HH11 ARG A   2     -10.744 -10.567   4.552  0.00  0.00    +0.255 HD
ATOM     33 HH12 ARG A   2      -9.236 -10.568   3.566  0.00  0.00    +0.255 HD
ATOM     34  HE  ARG A   2      -7.873  -8.785   3.583  0.00  0.00    +0.259 HD
ENDBRANCH  25  26
ENDBRANCH  24  25
ENDBRANCH  23  24
ENDBRANCH  11  23
ENDBRANCH   7  11
ENDBRANCH   5   9
ENDBRANCH   1   5
BRANCH   2  35
ATOM     35  CA  SER A   4      -1.725  -8.347  10.686  0.00  0.00    +0.178 C 
BRANCH  35  36
ATOM     36  C   SER A   4      -1.526  -9.849  10.404  0.00  0.00    +0.243 C 
ATOM     37  O   SER A   4      -0.715 -10.517  11.051  0.00  0.00    -0.273 OA
ATOM     38  N   ILE A   5      -2.287 -10.374   9.449  0.00  0.00    -0.297 N 
ATOM     39  H   ILE A   5      -2.962  -9.761   8.948  0.00  0.00    +0.150 HD
BRANCH  38  40
ATOM     40  CA  ILE A   5      -2.206 -11.776   9.083  0.00  0.00    +0.149 C 
BRANCH  40  41
ATOM     41  C   ILE A   5      -0.732 -12.157   8.819  0.00  0.00    +0.241 C 
ATOM     42  O   ILE A   5      -0.336 -13.324   8.910  0.00  0.00    -0.273 OA
ATOM     43  N   TRP A   6       0.086 -11.157   8.517  0.00  0.00    -0.298 N 
ATOM     44  H   TRP A   6      -0.275 -10.182   8.530  0.00  0.00    +0.150 HD
BRANCH  43  45
ATOM     45  CA  TRP A   6       1.475 -11.398   8.169  0.00  0.00    +0.141 C 
BRANCH  45  46
ATOM     46  C   TRP A   6       2.291 -11.914   9.355  0.00  0.00    +0.227 C 
ATOM     47  O   TRP A   6       3.420 -12.366   9.206  0.00  0.00    -0.286 OA
ENDBRANCH  45  46
BRANCH  45  48
ATOM     48  CB  TRP A   6       2.108 -10.128   7.571  0.00  0.00    +0.056 C 
BRANCH  48  49
ATOM     49  CG  TRP A   6       2.072 -10.072   6.078  0.00  0.00    -0.002 A 
ATOM     50  CD2 TRP A   6       2.116  -8.900   5.265  0.00  0.00    +0.013 A 
ATOM     51  CE3 TRP A   6       2.167  -7.526   5.545  0.00  0.00    +0.001 A 
ATOM     52  CZ3 TRP A   6       2.191  -6.633   4.494  0.00  0.00    +0.000 A 
ATOM     53  CH2 TRP A   6       2.165  -7.086   3.158  0.00  0.00    +0.001 A 
ATOM     54  CZ2 TRP A   6       2.111  -8.423   2.852  0.00  0.00    +0.017 A 
ATOM     55  CE2 TRP A   6       2.085  -9.316   3.911  0.00  0.00    +0.056 A 
ATOM     56  NE1 TRP A   6       2.024 -10.691   3.903  0.00  0.00    -0.352 N 
ATOM     57  HE1 TRP A   6       1.981 -11.292   3.055  0.00  0.00    +0.166 HD
ATOM     58  CD1 TRP A   6       2.029 -11.137   5.206  0.00  0.00    +0.068 A 
ENDBRANCH  48  49
ENDBRANCH  45  48
ENDBRANCH  43  45
ENDBRANCH  40  41
BRANCH  40  59
ATOM     59  CB  ILE A   5      -3.083 -12.062   7.837  0.00  0.00    +0.027 C 
ATOM     60  CG2 ILE A   5      -2.512 -11.386   6.623  0.00  0.00    +0.002 C 
BRANCH  59  61
ATOM     61  CG1 ILE A   5      -3.195 -13.554   7.557  0.00  0.00    +0.002 C 
ATOM     62  CD1 ILE A   5      -3.872 -14.329   8.675  0.00  0.00    +0.000 C 
ENDBRANCH  59  61
ENDBRANCH  40  59
ENDBRANCH  38  40
ENDBRANCH  35  36
BRANCH  35  63
ATOM     63  CB  SER A   4      -2.751  -8.190  11.811  0.00  0.00    +0.166 C 
BRANCH  63  64
ATOM     64  OG  SER A   4      -2.925  -6.834  12.159  0.00  0.00    -0.380 OA
ATOM     65  H   SER A   4      -3.243  -6.330  11.369  0.00  0.00    +0.211 HD
ENDBRANCH  63  64
ENDBRANCH  35  63
ENDBRANCH   2  35
TORSDOF 25
REMARK  Name = ../refined-set-2016/3iss/3iss_pocket.pdb
REMARK  237 active torsions:
REMARK  status: ('A' for Active; 'I' for Inactive)
REMARK    1  A    between atoms: _1  and  _3
REMARK    2  A    between atoms: _3  and  _4
REMARK    3  A    between atoms: _3  and  _6
REMARK    4  A    between atoms: _6  and  _7
REMARK    5  A    between atoms: _7  and  _8
REMARK    6  A    between atoms: _8  and  _9
REMARK    7  A    between atoms: _9  and  _10
REMARK    8  A    between atoms: _14  and  _16
REMARK    9  A    between atoms: _16  and  _17
REMARK   10  A    between atoms: _16  and  _19
REMARK   11  A    between atoms: _19  and  _20
REMARK   12  A    between atoms: _25  and  _27
REMARK   13  A    between atoms: _27  and  _28
REMARK   14  A    between atoms: _31  and  _33
REMARK   15  A    between atoms: _33  and  _34
REMARK   16  A    between atoms: _33  and  _36
REMARK   17  A    between atoms: _36  and  _37
REMARK   18  A    between atoms: _41  and  _42
REMARK   19  A    between atoms: _47  and  _49
REMARK   20  A    between atoms: _49  and  _50
REMARK   21  A    between atoms: _49  and  _52
REMARK   22  A    between atoms: _52  and  _53
REMARK   23  A    between atoms: _56  and  _58
REMARK   24  A    between atoms: _58  and  _59
REMARK   25  A    between atoms: _58  and  _61
REMARK   26  A    between atoms: _61  and  _62
REMARK   27  A    between atoms: _62  and  _63
REMARK   28  A    between atoms: _65  and  _67
REMARK   29  A    between atoms: _67  and  _68
REMARK   30  A    between atoms: _67  and  _70
REMARK   31  A    between atoms: _70  and  _71
REMARK   32  A    between atoms: _71  and  _72
REMARK   33  A    between atoms: _72  and  _73
REMARK   34  A    between atoms: _82  and  _84
REMARK   35  A    between atoms: _84  and  _85
REMARK   36  A    between atoms: _88  and  _90
REMARK   37  A    between atoms: _90  and  _91
REMARK   38  A    between atoms: _90  and  _93
REMARK   39  A    between atoms: _93  and  _94
REMARK   40  A    between atoms: _96  and  _98
REMARK   41  A    between atoms: _98  and  _99
REMARK   42  A    between atoms: _98  and  _101
REMARK   43  A    between atoms: _101  and  _102
REMARK   44  A    between atoms: _105  and  _107
REMARK   45  A    between atoms: _107  and  _108
REMARK   46  A    between atoms: _107  and  _110
REMARK   47  A    between atoms: _110  and  _111
REMARK   48  A    between atoms: _121  and  _123
REMARK   49  A    between atoms: _123  and  _124
REMARK   50  A    between atoms: _123  and  _126
REMARK   51  A    between atoms: _128  and  _130
REMARK   52  A    between atoms: _130  and  _131
REMARK   53  A    between atoms: _130  and  _133
REMARK   54  A    between atoms: _133  and  _134
REMARK   55  A    between atoms: _137  and  _139
REMARK   56  A    between atoms: _139  and  _140
REMARK   57  A    between atoms: _142  and  _144
REMARK   58  A    between atoms: _144  and  _145
REMARK   59  A    between atoms: _148  and  _150
REMARK   60  A    between atoms: _150  and  _151
REMARK   61  A    between atoms: _150  and  _153
REMARK   62  A    between atoms: _153  and  _154
REMARK   63  A    between atoms: _154  and  _155
REMARK   64  A    between atoms: _155  and  _156
REMARK   65  A    between atoms: _166  and  _167
REMARK   66  A    between atoms: _172  and  _174
REMARK   67  A    between atoms: _174  and  _175
REMARK   68  A    between atoms: _174  and  _177
REMARK   69  A    between atoms: _180  and  _182
REMARK   70  A    between atoms: _182  and  _183
REMARK   71  A    between atoms: _182  and  _185
REMARK   72  A    between atoms: _185  and  _186
REMARK   73  A    between atoms: _189  and  _191
REMARK   74  A    between atoms: _191  and  _192
REMARK   75  A    between atoms: _191  and  _194
REMARK   76  A    between atoms: _194  and  _195
REMARK   77  A    between atoms: _198  and  _200
REMARK   78  A    between atoms: _200  and  _201
REMARK   79  A    between atoms: _200  and  _203
REMARK   80  A    between atoms: _203  and  _204
REMARK   81  A    between atoms: _209  and  _211
REMARK   82  A    between atoms: _211  and  _212
REMARK   83  A    between atoms: _211  and  _214
REMARK   84  A    between atoms: _214  and  _215
REMARK   85  A    between atoms: _218  and  _220
REMARK   86  A    between atoms: _220  and  _221
REMARK   87  A    between atoms: _220  and  _223
REMARK   88  A    between atoms: _223  and  _224
REMARK   89  A    between atoms: _226  and  _228
REMARK   90  A    between atoms: _228  and  _229
REMARK   91  A    between atoms: _231  and  _233
REMARK   92  A    between atoms: _233  and  _234
REMARK   93  A    between atoms: _233  and  _236
REMARK   94  A    between atoms: _236  and  _237
REMARK   95  A    between atoms: _237  and  _238
REMARK   96  A    between atoms: _240  and  _242
REMARK   97  A    between atoms: _242  and  _243
REMARK   98  A    between atoms: _242  and  _245
REMARK   99  A    between atoms: _245  and  _246
REMARK  100  A    between atoms: _249  and  _251
REMARK  101  A    between atoms: _251  and  _252
REMARK  102  A    between atoms: _251  and  _254
REMARK  103  A    between atoms: _254  and  _255
REMARK  104  A    between atoms: _255  and  _256
REMARK  105  A    between atoms: _256  and  _257
REMARK  106  A    between atoms: _257  and  _258
REMARK  107  A    between atoms: _262  and  _264
REMARK  108  A    between atoms: _264  and  _265
REMARK  109  A    between atoms: _264  and  _267
REMARK  110  A    between atoms: _270  and  _272
REMARK  111  A    between atoms: _272  and  _273
REMARK  112  A    between atoms: _272  and  _275
REMARK  113  A    between atoms: _275  and  _276
REMARK  114  A    between atoms: _278  and  _280
REMARK  115  A    between atoms: _280  and  _281
REMARK  116  A    between atoms: _280  and  _283
REMARK  117  A    between atoms: _286  and  _288
REMARK  118  A    between atoms: _288  and  _289
REMARK  119  A    between atoms: _291  and  _293
REMARK  120  A    between atoms: _293  and  _294
REMARK  121  A    between atoms: _297  and  _299
REMARK  122  A    between atoms: _299  and  _300
REMARK  123  A    between atoms: _299  and  _302
REMARK  124  A    between atoms: _302  and  _303
REMARK  125  A    between atoms: _306  and  _308
REMARK  126  A    between atoms: _308  and  _309
REMARK  127  A    between atoms: _308  and  _311
REMARK  128  A    between atoms: _314  and  _316
REMARK  129  A    between atoms: _316  and  _317
REMARK  130  A    between atoms: _316  and  _319
REMARK  131  A    between atoms: _319  and  _320
REMARK  132  A    between atoms: _323  and  _325
REMARK  133  A    between atoms: _325  and  _326
REMARK  134  A    between atoms: _329  and  _331
REMARK  135  A    between atoms: _331  and  _332
REMARK  136  A    between atoms: _331  and  _334
REMARK  137  A    between atoms: _334  and  _335
REMARK  138  A    between atoms: _335  and  _336
REMARK  139  A    between atoms: _339  and  _341
REMARK  140  A    between atoms: _341  and  _342
REMARK  141  A    between atoms: _341  and  _344
REMARK  142  A    between atoms: _344  and  _345
REMARK  143  A    between atoms: _345  and  _346
REMARK  144  A    between atoms: _349  and  _351
REMARK  145  A    between atoms: _351  and  _352
REMARK  146  A    between atoms: _351  and  _354
REMARK  147  A    between atoms: _354  and  _355
REMARK  148  A    between atoms: _358  and  _360
REMARK  149  A    between atoms: _360  and  _361
REMARK  150  A    between atoms: _360  and  _363
REMARK  151  A    between atoms: _363  and  _364
REMARK  152  A    between atoms: _367  and  _369
REMARK  153  A    between atoms: _369  and  _370
REMARK  154  A    between atoms: _369  and  _372
REMARK  155  A    between atoms: _372  and  _373
REMARK  156  A    between atoms: _373  and  _374
REMARK  157  A    between atoms: _374  and  _375
REMARK  158  A    between atoms: _384  and  _386
REMARK  159  A    between atoms: _386  and  _387
REMARK  160  A    between atoms: _386  and  _389
REMARK  161  A    between atoms: _389  and  _390
REMARK  162  A    between atoms: _393  and  _395
REMARK  163  A    between atoms: _395  and  _396
REMARK  164  A    between atoms: _400  and  _401
REMARK  165  A    between atoms: _406  and  _408
REMARK  166  A    between atoms: _408  and  _409
REMARK  167  A    between atoms: _408  and  _411
REMARK  168  A    between atoms: _411  and  _412
REMARK  169  A    between atoms: _418  and  _419
REMARK  170  A    between atoms: _424  and  _426
REMARK  171  A    between atoms: _426  and  _427
REMARK  172  A    between atoms: _426  and  _429
REMARK  173  A    between atoms: _429  and  _430
REMARK  174  A    between atoms: _433  and  _435
REMARK  175  A    between atoms: _435  and  _436
REMARK  176  A    between atoms: _435  and  _438
REMARK  177  A    between atoms: _438  and  _439
REMARK  178  A    between atoms: _442  and  _444
REMARK  179  A    between atoms: _444  and  _445
REMARK  180  A    between atoms: _444  and  _447
REMARK  181  A    between atoms: _447  and  _448
REMARK  182  A    between atoms: _448  and  _449
REMARK  183  A    between atoms: _451  and  _453
REMARK  184  A    between atoms: _453  and  _454
REMARK  185  A    between atoms: _453  and  _456
REMARK  186  A    between atoms: _456  and  _457
REMARK  187  A    between atoms: _457  and  _458
REMARK  188  A    between atoms: _461  and  _463
REMARK  189  A    between atoms: _463  and  _464
REMARK  190  A    between atoms: _463  and  _466
REMARK  191  A    between atoms: _466  and  _467
REMARK  192  A    between atoms: _470  and  _472
REMARK  193  A    between atoms: _472  and  _473
REMARK  194  A    between atoms: _472  and  _475
REMARK  195  A    between atoms: _478  and  _480
REMARK  196  A    between atoms: _480  and  _481
REMARK  197  A    between atoms: _480  and  _483
REMARK  198  A    between atoms: _483  and  _484
REMARK  199  A    between atoms: _490  and  _492
REMARK  200  A    between atoms: _492  and  _493
REMARK  201  A    between atoms: _492  and  _495
REMARK  202  A    between atoms: _495  and  _496
REMARK  203  A    between atoms: _496  and  _497
REMARK  204  A    between atoms: _500  and  _502
REMARK  205  A    between atoms: _502  and  _503
REMARK  206  A    between atoms: _502  and  _505
REMARK  207  A    between atoms: _505  and  _506
REMARK  208  A    between atoms: _511  and  _513
REMARK  209  A    between atoms: _513  and  _514
REMARK  210  A    between atoms: _513  and  _516
REMARK  211  A    between atoms: _516  and  _517
REMARK  212  A    between atoms: _517  and  _518
REMARK  213  A    between atoms: _518  and  _519
REMARK  214  A    between atoms: _528  and  _530
REMARK  215  A    between atoms: _530  and  _531
REMARK  216  A    between atoms: _530  and  _533
REMARK  217  A    between atoms: _533  and  _534
REMARK  218  A    between atoms: _537  and  _539
REMARK  219  A    between atoms: _539  and  _540
REMARK  220  A    between atoms: _539  and  _542
REMARK  221  A    between atoms: _542  and  _543
REMARK  222  A    between atoms: _546  and  _548
REMARK  223  A    between atoms: _548  and  _549
REMARK  224  A    between atoms: _548  and  _551
REMARK  225  A    between atoms: _551  and  _552
REMARK  226  A    between atoms: _552  and  _553
REMARK  227  A    between atoms: _553  and  _554
REMARK  228  A    between atoms: _563  and  _565
REMARK  229  A    between atoms: _565  and  _566
REMARK  230  A    between atoms: _569  and  _571
REMARK  231  A    between atoms: _571  and  _572
REMARK  232  A    between atoms: _571  and  _574
REMARK  233  A    between atoms: _574  and  _575
REMARK  234  A    between atoms: _575  and  _576
REMARK  235  A    between atoms: _576  and  _577
REMARK  236  A    between atoms: _586  and  _588
REMARK  237  A    between atoms: _588  and  _589
REMARK                            x       y       z     vdW  Elec       q    Type
REMARK                         _______ _______ _______ _____ _____    ______ ____
ROOT
ATOM      1  CA  CYS A   1     -13.640  -5.616   3.477  0.00  0.00    +0.145 C 
ENDROOT
BRANCH   1   2
ATOM      2  N   CYS A   1     -14.203  -6.928   3.752  0.00  0.00    -0.238 NA
ATOM      3  H   CYS A   1     -14.359  -7.585   2.961  0.00  0.00    +0.142 HD
ENDBRANCH   1   2
BRANCH   1   4
ATOM      4  CB  CYS A   1     -12.260  -5.706   2.845  0.00  0.00    +0.094 C 
ATOM      5  SG  CYS A   1     -11.285  -4.201   3.009  0.00  0.00    -0.080 S 
ENDBRANCH   1   4
BRANCH   1   6
ATOM      6  C   CYS A   1     -14.582  -4.888   2.556  0.00  0.00    +0.225 C 
ATOM      7  O   CYS A   1     -15.251  -5.516   1.765  0.00  0.00    -0.287 OA
ENDBRANCH   1   6
TORSDOF 3
REMARK  Name = ../refined-set-2016/3iss/3iss_pocket.pdb
REMARK  237 active torsions:
REMARK  status: ('A' for Active; 'I' for Inactive)
REMARK    1  A    between atoms: _1  and  _3
REMARK    2  A    between atoms: _3  and  _4
REMARK    3  A    between atoms: _3  and  _6
REMARK    4  A    between atoms: _6  and  _7
REMARK    5  A    between atoms: _7  and  _8
REMARK    6  A    between atoms: _8  and  _9
REMARK    7  A    between atoms: _9  and  _10
REMARK    8  A    between atoms: _14  and  _16
REMARK    9  A    between atoms: _16  and  _17
REMARK   10  A    between atoms: _16  and  _19
REMARK   11  A    between atoms: _19  and  _20
REMARK   12  A    between atoms: _25  and  _27
REMARK   13  A    between atoms: _27  and  _28
REMARK   14  A    between atoms: _31  and  _33
REMARK   15  A    between atoms: _33  and  _34
REMARK   16  A    between atoms: _33  and  _36
REMARK   17  A    between atoms: _36  and  _37
REMARK   18  A    between atoms: _41  and  _42
REMARK   19  A    between atoms: _47  and  _49
REMARK   20  A    between atoms: _49  and  _50
REMARK   21  A    between atoms: _49  and  _52
REMARK   22  A    between atoms: _52  and  _53
REMARK   23  A    between atoms: _56  and  _58
REMARK   24  A    between atoms: _58  and  _59
REMARK   25  A    between atoms: _58  and  _61
REMARK   26  A    between atoms: _61  and  _62
REMARK   27  A    between atoms: _62  and  _63
REMARK   28  A    between atoms: _65  and  _67
REMARK   29  A    between atoms: _67  and  _68
REMARK   30  A    between atoms: _67  and  _70
REMARK   31  A    between atoms: _70  and  _71
REMARK   32  A    between atoms: _71  and  _72
REMARK   33  A    between atoms: _72  and  _73
REMARK   34  A    between atoms: _82  and  _84
REMARK   35  A    between atoms: _84  and  _85
REMARK   36  A    between atoms: _88  and  _90
REMARK   37  A    between atoms: _90  and  _91
REMARK   38  A    between atoms: _90  and  _93
REMARK   39  A    between atoms: _93  and  _94
REMARK   40  A    between atoms: _96  and  _98
REMARK   41  A    between atoms: _98  and  _99
REMARK   42  A    between atoms: _98  and  _101
REMARK   43  A    between atoms: _101  and  _102
REMARK   44  A    between atoms: _105  and  _107
REMARK   45  A    between atoms: _107  and  _108
REMARK   46  A    between atoms: _107  and  _110
REMARK   47  A    between atoms: _110  and  _111
REMARK   48  A    between atoms: _121  and  _123
REMARK   49  A    between atoms: _123  and  _124
REMARK   50  A    between atoms: _123  and  _126
REMARK   51  A    between atoms: _128  and  _130
REMARK   52  A    between atoms: _130  and  _131
REMARK   53  A    between atoms: _130  and  _133
REMARK   54  A    between atoms: _133  and  _134
REMARK   55  A    between atoms: _137  and  _139
REMARK   56  A    between atoms: _139  and  _140
REMARK   57  A    between atoms: _142  and  _144
REMARK   58  A    between atoms: _144  and  _145
REMARK   59  A    between atoms: _148  and  _150
REMARK   60  A    between atoms: _150  and  _151
REMARK   61  A    between atoms: _150  and  _153
REMARK   62  A    between atoms: _153  and  _154
REMARK   63  A    between atoms: _154  and  _155
REMARK   64  A    between atoms: _155  and  _156
REMARK   65  A    between atoms: _166  and  _167
REMARK   66  A    between atoms: _172  and  _174
REMARK   67  A    between atoms: _174  and  _175
REMARK   68  A    between atoms: _174  and  _177
REMARK   69  A    between atoms: _180  and  _182
REMARK   70  A    between atoms: _182  and  _183
REMARK   71  A    between atoms: _182  and  _185
REMARK   72  A    between atoms: _185  and  _186
REMARK   73  A    between atoms: _189  and  _191
REMARK   74  A    between atoms: _191  and  _192
REMARK   75  A    between atoms: _191  and  _194
REMARK   76  A    between atoms: _194  and  _195
REMARK   77  A    between atoms: _198  and  _200
REMARK   78  A    between atoms: _200  and  _201
REMARK   79  A    between atoms: _200  and  _203
REMARK   80  A    between atoms: _203  and  _204
REMARK   81  A    between atoms: _209  and  _211
REMARK   82  A    between atoms: _211  and  _212
REMARK   83  A    between atoms: _211  and  _214
REMARK   84  A    between atoms: _214  and  _215
REMARK   85  A    between atoms: _218  and  _220
REMARK   86  A    between atoms: _220  and  _221
REMARK   87  A    between atoms: _220  and  _223
REMARK   88  A    between atoms: _223  and  _224
REMARK   89  A    between atoms: _226  and  _228
REMARK   90  A    between atoms: _228  and  _229
REMARK   91  A    between atoms: _231  and  _233
REMARK   92  A    between atoms: _233  and  _234
REMARK   93  A    between atoms: _233  and  _236
REMARK   94  A    between atoms: _236  and  _237
REMARK   95  A    between atoms: _237  and  _238
REMARK   96  A    between atoms: _240  and  _242
REMARK   97  A    between atoms: _242  and  _243
REMARK   98  A    between atoms: _242  and  _245
REMARK   99  A    between atoms: _245  and  _246
REMARK  100  A    between atoms: _249  and  _251
REMARK  101  A    between atoms: _251  and  _252
REMARK  102  A    between atoms: _251  and  _254
REMARK  103  A    between atoms: _254  and  _255
REMARK  104  A    between atoms: _255  and  _256
REMARK  105  A    between atoms: _256  and  _257
REMARK  106  A    between atoms: _257  and  _258
REMARK  107  A    between atoms: _262  and  _264
REMARK  108  A    between atoms: _264  and  _265
REMARK  109  A    between atoms: _264  and  _267
REMARK  110  A    between atoms: _270  and  _272
REMARK  111  A    between atoms: _272  and  _273
REMARK  112  A    between atoms: _272  and  _275
REMARK  113  A    between atoms: _275  and  _276
REMARK  114  A    between atoms: _278  and  _280
REMARK  115  A    between atoms: _280  and  _281
REMARK  116  A    between atoms: _280  and  _283
REMARK  117  A    between atoms: _286  and  _288
REMARK  118  A    between atoms: _288  and  _289
REMARK  119  A    between atoms: _291  and  _293
REMARK  120  A    between atoms: _293  and  _294
REMARK  121  A    between atoms: _297  and  _299
REMARK  122  A    between atoms: _299  and  _300
REMARK  123  A    between atoms: _299  and  _302
REMARK  124  A    between atoms: _302  and  _303
REMARK  125  A    between atoms: _306  and  _308
REMARK  126  A    between atoms: _308  and  _309
REMARK  127  A    between atoms: _308  and  _311
REMARK  128  A    between atoms: _314  and  _316
REMARK  129  A    between atoms: _316  and  _317
REMARK  130  A    between atoms: _316  and  _319
REMARK  131  A    between atoms: _319  and  _320
REMARK  132  A    between atoms: _323  and  _325
REMARK  133  A    between atoms: _325  and  _326
REMARK  134  A    between atoms: _329  and  _331
REMARK  135  A    between atoms: _331  and  _332
REMARK  136  A    between atoms: _331  and  _334
REMARK  137  A    between atoms: _334  and  _335
REMARK  138  A    between atoms: _335  and  _336
REMARK  139  A    between atoms: _339  and  _341
REMARK  140  A    between atoms: _341  and  _342
REMARK  141  A    between atoms: _341  and  _344
REMARK  142  A    between atoms: _344  and  _345
REMARK  143  A    between atoms: _345  and  _346
REMARK  144  A    between atoms: _349  and  _351
REMARK  145  A    between atoms: _351  and  _352
REMARK  146  A    between atoms: _351  and  _354
REMARK  147  A    between atoms: _354  and  _355
REMARK  148  A    between atoms: _358  and  _360
REMARK  149  A    between atoms: _360  and  _361
REMARK  150  A    between atoms: _360  and  _363
REMARK  151  A    between atoms: _363  and  _364
REMARK  152  A    between atoms: _367  and  _369
REMARK  153  A    between atoms: _369  and  _370
REMARK  154  A    between atoms: _369  and  _372
REMARK  155  A    between atoms: _372  and  _373
REMARK  156  A    between atoms: _373  and  _374
REMARK  157  A    between atoms: _374  and  _375
REMARK  158  A    between atoms: _384  and  _386
REMARK  159  A    between atoms: _386  and  _387
REMARK  160  A    between atoms: _386  and  _389
REMARK  161  A    between atoms: _389  and  _390
REMARK  162  A    between atoms: _393  and  _395
REMARK  163  A    between atoms: _395  and  _396
REMARK  164  A    between atoms: _400  and  _401
REMARK  165  A    between atoms: _406  and  _408
REMARK  166  A    between atoms: _408  and  _409
REMARK  167  A    between atoms: _408  and  _411
REMARK  168  A    between atoms: _411  and  _412
REMARK  169  A    between atoms: _418  and  _419
REMARK  170  A    between atoms: _424  and  _426
REMARK  171  A    between atoms: _426  and  _427
REMARK  172  A    between atoms: _426  and  _429
REMARK  173  A    between atoms: _429  and  _430
REMARK  174  A    between atoms: _433  and  _435
REMARK  175  A    between atoms: _435  and  _436
REMARK  176  A    between atoms: _435  and  _438
REMARK  177  A    between atoms: _438  and  _439
REMARK  178  A    between atoms: _442  and  _444
REMARK  179  A    between atoms: _444  and  _445
REMARK  180  A    between atoms: _444  and  _447
REMARK  181  A    between atoms: _447  and  _448
REMARK  182  A    between atoms: _448  and  _449
REMARK  183  A    between atoms: _451  and  _453
REMARK  184  A    between atoms: _453  and  _454
REMARK  185  A    between atoms: _453  and  _456
REMARK  186  A    between atoms: _456  and  _457
REMARK  187  A    between atoms: _457  and  _458
REMARK  188  A    between atoms: _461  and  _463
REMARK  189  A    between atoms: _463  and  _464
REMARK  190  A    between atoms: _463  and  _466
REMARK  191  A    between atoms: _466  and  _467
REMARK  192  A    between atoms: _470  and  _472
REMARK  193  A    between atoms: _472  and  _473
REMARK  194  A    between atoms: _472  and  _475
REMARK  195  A    between atoms: _478  and  _480
REMARK  196  A    between atoms: _480  and  _481
REMARK  197  A    between atoms: _480  and  _483
REMARK  198  A    between atoms: _483  and  _484
REMARK  199  A    between atoms: _490  and  _492
REMARK  200  A    between atoms: _492  and  _493
REMARK  201  A    between atoms: _492  and  _495
REMARK  202  A    between atoms: _495  and  _496
REMARK  203  A    between atoms: _496  and  _497
REMARK  204  A    between atoms: _500  and  _502
REMARK  205  A    between atoms: _502  and  _503
REMARK  206  A    between atoms: _502  and  _505
REMARK  207  A    between atoms: _505  and  _506
REMARK  208  A    between atoms: _511  and  _513
REMARK  209  A    between atoms: _513  and  _514
REMARK  210  A    between atoms: _513  and  _516
REMARK  211  A    between atoms: _516  and  _517
REMARK  212  A    between atoms: _517  and  _518
REMARK  213  A    between atoms: _518  and  _519
REMARK  214  A    between atoms: _528  and  _530
REMARK  215  A    between atoms: _530  and  _531
REMARK  216  A    between atoms: _530  and  _533
REMARK  217  A    between atoms: _533  and  _534
REMARK  218  A    between atoms: _537  and  _539
REMARK  219  A    between atoms: _539  and  _540
REMARK  220  A    between atoms: _539  and  _542
REMARK  221  A    between atoms: _542  and  _543
REMARK  222  A    between atoms: _546  and  _548
REMARK  223  A    between atoms: _548  and  _549
REMARK  224  A    between atoms: _548  and  _551
REMARK  225  A    between atoms: _551  and  _552
REMARK  226  A    between atoms: _552  and  _553
REMARK  227  A    between atoms: _553  and  _554
REMARK  228  A    between atoms: _563  and  _565
REMARK  229  A    between atoms: _565  and  _566
REMARK  230  A    between atoms: _569  and  _571
REMARK  231  A    between atoms: _571  and  _572
REMARK  232  A    between atoms: _571  and  _574
REMARK  233  A    between atoms: _574  and  _575
REMARK  234  A    between atoms: _575  and  _576
REMARK  235  A    between atoms: _576  and  _577
REMARK  236  A    between atoms: _586  and  _588
REMARK  237  A    between atoms: _588  and  _589
REMARK                            x       y       z     vdW  Elec       q    Type
REMARK                         _______ _______ _______ _____ _____    ______ ____
ROOT
ATOM      1  C   VAL A   6      -6.046 -17.240   2.336  0.00  0.00    +0.241 C 
ATOM      2  O   VAL A   6      -5.047 -17.694   2.897  0.00  0.00    -0.273 OA
ATOM      3  N   ASP A   7      -6.841 -17.957   1.544  0.00  0.00    -0.297 N 
ATOM      4  H   ASP A   7      -7.658 -17.484   1.107  0.00  0.00    +0.150 HD
ENDROOT
BRANCH   3   5
ATOM      5  CA  ASP A   7      -6.624 -19.380   1.255  0.00  0.00    +0.160 C 
BRANCH   5   6
ATOM      6  C   ASP A   7      -5.204 -19.688   0.776  0.00  0.00    +0.241 C 
ATOM      7  O   ASP A   7      -4.648 -20.752   1.093  0.00  0.00    -0.273 OA
ATOM      8  N   LEU A   8      -4.629 -18.769  -0.004  0.00  0.00    -0.297 N 
ATOM      9  H   LEU A   8      -5.145 -17.897  -0.238  0.00  0.00    +0.150 HD
BRANCH   8  10
ATOM     10  CA  LEU A   8      -3.288 -18.974  -0.530  0.00  0.00    +0.149 C 
BRANCH  10  11
ATOM     11  C   LEU A   8      -2.227 -18.903   0.571  0.00  0.00    +0.241 C 
ATOM     12  N   HIS A   9      -2.442 -18.070   1.588  0.00  0.00    -0.297 N 
ATOM     13  H   HIS A   9      -3.284 -17.459   1.577  0.00  0.00    +0.150 HD
ATOM     14  O   LEU A   8      -1.225 -19.596   0.489  0.00  0.00    -0.273 OA
BRANCH  12  15
ATOM     15  CA  HIS A   9      -1.522 -17.997   2.715  0.00  0.00    +0.155 C 
BRANCH  15  16
ATOM     16  C   HIS A   9      -1.519 -19.341   3.429  0.00  0.00    +0.241 C 
ATOM     17  N   ILE A  10      -2.718 -19.816   3.747  0.00  0.00    -0.297 N 
ATOM     18  H   ILE A  10      -3.563 -19.294   3.440  0.00  0.00    +0.150 HD
ATOM     19  O   HIS A   9      -0.465 -19.919   3.708  0.00  0.00    -0.273 OA
BRANCH  17  20
ATOM     20  CA  ILE A  10      -2.888 -21.045   4.512  0.00  0.00    +0.149 C 
BRANCH  20  21
ATOM     21  C   ILE A  10      -2.321 -22.220   3.746  0.00  0.00    +0.241 C 
ATOM     22  O   ILE A  10      -1.524 -22.992   4.271  0.00  0.00    -0.273 OA
ATOM     23  N   SER A  11      -2.732 -22.347   2.491  0.00  0.00    -0.295 N 
ATOM     24  H   SER A  11      -3.399 -21.650   2.104  0.00  0.00    +0.150 HD
BRANCH  23  25
ATOM     25  CA  SER A  11      -2.274 -23.436   1.642  0.00  0.00    +0.178 C 
BRANCH  25  26
ATOM     26  C   SER A  11      -0.752 -23.463   1.491  0.00  0.00    +0.243 C 
ATOM     27  O   SER A  11      -0.142 -24.529   1.535  0.00  0.00    -0.273 OA
ATOM     28  N   GLY A  12      -0.143 -22.293   1.311  0.00  0.00    -0.296 N 
ATOM     29  H   GLY A  12      -0.714 -21.426   1.249  0.00  0.00    +0.150 HD
BRANCH  28  30
ATOM     30  CA  GLY A  12       1.301 -22.201   1.199  0.00  0.00    +0.163 C 
BRANCH  30  31
ATOM     31  C   GLY A  12       2.003 -22.748   2.425  0.00  0.00    +0.229 C 
ATOM     32  O   GLY A  12       3.028 -23.442   2.305  0.00  0.00    -0.286 OA
ENDBRANCH  30  31
ENDBRANCH  28  30
ENDBRANCH  25  26
BRANCH  25  33
ATOM     33  CB  SER A  11      -2.941 -23.340   0.277  0.00  0.00    +0.166 C 
BRANCH  33  34
ATOM     34  OG  SER A  11      -2.279 -24.158  -0.668  0.00  0.00    -0.380 OA
ATOM     35  H   SER A  11      -2.731 -24.078  -1.545  0.00  0.00    +0.211 HD
ENDBRANCH  33  34
ENDBRANCH  25  33
ENDBRANCH  23  25
ENDBRANCH  20  21
BRANCH  20  36
ATOM     36  CB  ILE A  10      -4.369 -21.310   4.801  0.00  0.00    +0.027 C 
ATOM     37  CG2 ILE A  10      -4.551 -22.715   5.320  0.00  0.00    +0.002 C 
BRANCH  36  38
ATOM     38  CG1 ILE A  10      -4.913 -20.279   5.804  0.00  0.00    +0.002 C 
ATOM     39  CD1 ILE A  10      -6.410 -20.354   6.043  0.00  0.00    +0.000 C 
ENDBRANCH  36  38
ENDBRANCH  20  36
ENDBRANCH  17  20
ENDBRANCH  15  16
BRANCH  15  40
ATOM     40  CB  HIS A   9      -1.954 -16.915   3.726  0.00  0.00    +0.076 C 
BRANCH  40  41
ATOM     41  CG  HIS A   9      -1.879 -15.506   3.200  0.00  0.00    +0.082 A 
ATOM     42  ND1 HIS A   9      -0.932 -14.599   3.630  0.00  0.00    -0.227 NA
ATOM     43  CE1 HIS A   9      -1.122 -13.444   3.013  0.00  0.00    +0.199 A 
ATOM     44  NE2 HIS A   9      -2.163 -13.565   2.212  0.00  0.00    -0.221 NA
ATOM     45  CD2 HIS A   9      -2.654 -14.850   2.306  0.00  0.00    +0.115 A 
ENDBRANCH  40  41
ENDBRANCH  15  40
ENDBRANCH  12  15
ENDBRANCH  10  11
BRANCH  10  46
ATOM     46  CB  LEU A   8      -2.971 -17.981  -1.642  0.00  0.00    +0.029 C 
BRANCH  46  47
ATOM     47  CG  LEU A   8      -3.779 -18.051  -2.938  0.00  0.00    +0.002 C 
ATOM     48  CD2 LEU A   8      -3.582 -19.350  -3.608  0.00  0.00    +0.000 C 
ATOM     49  CD1 LEU A   8      -3.390 -16.915  -3.889  0.00  0.00    +0.000 C 
ENDBRANCH  46  47
ENDBRANCH  10  46
ENDBRANCH   8  10
ENDBRANCH   5   6
BRANCH   5  50
ATOM     50  CB  ASP A   7      -7.618 -19.861   0.190  0.00  0.00    +0.143 C 
BRANCH  50  51
ATOM     51  CG  ASP A   7      -7.574 -18.994  -1.093  0.00  0.00    +0.367 C 
ATOM     52  OD2 ASP A   7      -7.812 -17.758  -1.023  0.00  0.00    -0.246 OA
ATOM     53  OD1 ASP A   7      -7.297 -19.552  -2.182  0.00  0.00    -0.246 OA
ENDBRANCH  50  51
ENDBRANCH   5  50
ENDBRANCH   3   5
BRANCH   1  54
ATOM     54  CA  VAL A   6      -6.446 -15.781   2.512  0.00  0.00    +0.149 C 
BRANCH  54  56
ATOM     55  C   PRO A   5      -8.301 -14.772   1.320  0.00  0.00    +0.241 C 
ATOM     56  N   VAL A   6      -7.872 -15.585   2.283  0.00  0.00    -0.297 N 
ATOM     57  H   VAL A   6      -8.562 -16.086   2.878  0.00  0.00    +0.150 HD
ATOM     58  O   PRO A   5      -7.544 -14.184   0.546  0.00  0.00    -0.273 OA
BRANCH  55  62
ATOM     59  C   ARG A   4      -9.895 -12.105   1.050  0.00  0.00    +0.244 C 
ATOM     60  O   ARG A   4      -9.303 -11.965   2.117  0.00  0.00    -0.273 OA
ATOM     61  N   PRO A   5     -10.171 -13.311   0.531  0.00  0.00    -0.272 N 
ATOM     62  CA  PRO A   5      -9.814 -14.588   1.182  0.00  0.00    +0.152 C 
ATOM     63  CB  PRO A   5     -10.342 -15.647   0.203  0.00  0.00    +0.031 C 
ATOM     64  CG  PRO A   5     -10.332 -14.956  -1.111  0.00  0.00    +0.024 C 
ATOM     65  CD  PRO A   5     -10.748 -13.528  -0.810  0.00  0.00    +0.094 C 
BRANCH  59  66
ATOM     66  CA  ARG A   4     -10.320 -10.889   0.219  0.00  0.00    +0.149 C 
BRANCH  66  68
ATOM     67  C   ALA A   3     -12.143 -10.509  -1.357  0.00  0.00    +0.241 C 
ATOM     68  N   ARG A   4     -11.744 -10.864  -0.133  0.00  0.00    -0.297 N 
ATOM     69  H   ARG A   4     -12.453 -11.127   0.581  0.00  0.00    +0.150 HD
ATOM     70  O   ALA A   3     -11.351 -10.255  -2.284  0.00  0.00    -0.273 OA
BRANCH  67  71
ATOM     71  CA  ALA A   3     -13.656 -10.442  -1.590  0.00  0.00    +0.149 C 
ATOM     72  CB  ALA A   3     -14.086 -11.561  -2.514  0.00  0.00    +0.031 C 
BRANCH  71  75
ATOM     73  C   GLY A   2     -13.945  -8.009  -1.492  0.00  0.00    +0.243 C 
ATOM     74  O   GLY A   2     -13.568  -7.952  -0.329  0.00  0.00    -0.273 OA
ATOM     75  N   ALA A   3     -14.057  -9.157  -2.159  0.00  0.00    -0.297 N 
ATOM     76  H   ALA A   3     -14.445  -9.138  -3.124  0.00  0.00    +0.150 HD
BRANCH  73  77
ATOM     77  CA  GLY A   2     -14.329  -6.753  -2.251  0.00  0.00    +0.176 C 
BRANCH  77  79
ATOM     78  C   ILE A   1     -13.656  -4.424  -2.253  0.00  0.00    +0.238 C 
ATOM     79  N   GLY A   2     -14.039  -5.502  -1.574  0.00  0.00    -0.296 N 
ATOM     80  H   GLY A   2     -14.132  -5.448  -0.540  0.00  0.00    +0.150 HD
ATOM     81  O   ILE A   1     -13.478  -4.451  -3.469  0.00  0.00    -0.274 OA
BRANCH  78  82
ATOM     82  CA  ILE A   1     -13.441  -3.125  -1.460  0.00  0.00    +0.145 C 
BRANCH  82  83
ATOM     83  N   ILE A   1     -13.866  -3.161  -0.058  0.00  0.00    -0.238 NA
ATOM     84  H   ILE A   1     -13.189  -3.423   0.687  0.00  0.00    +0.142 HD
ENDBRANCH  82  83
BRANCH  82  85
ATOM     85  CB  ILE A   1     -11.984  -2.648  -1.619  0.00  0.00    +0.025 C 
ATOM     86  CG2 ILE A   1     -11.659  -1.499  -0.662  0.00  0.00    +0.002 C 
BRANCH  85  87
ATOM     87  CG1 ILE A   1     -10.994  -3.779  -1.388  0.00  0.00    +0.002 C 
ATOM     88  CD1 ILE A   1      -9.576  -3.286  -1.273  0.00  0.00    +0.000 C 
ENDBRANCH  85  87
ENDBRANCH  82  85
ENDBRANCH  78  82
ENDBRANCH  77  79
ENDBRANCH  73  77
ENDBRANCH  71  75
ENDBRANCH  67  71
ENDBRANCH  66  68
BRANCH  66  89
ATOM     89  CB  ARG A   4      -9.916  -9.585   0.902  0.00  0.00    +0.033 C 
BRANCH  89  90
ATOM     90  CG  ARG A   4     -10.010  -8.383   0.003  0.00  0.00    +0.045 C 
BRANCH  90  91
ATOM     91  CD  ARG A   4      -8.679  -7.662  -0.005  0.00  0.00    +0.174 C 
BRANCH  91  92
ATOM     92  NE  ARG A   4      -8.704  -6.457   0.790  0.00  0.00    -0.265 N 
ATOM     93  CZ  ARG A   4      -7.617  -5.811   1.207  0.00  0.00    +0.342 C 
ATOM     94  NH2 ARG A   4      -7.718  -4.681   1.907  0.00  0.00    -0.292 N 
ATOM     95 HH21 ARG A   4      -6.859  -4.188   2.226  0.00  0.00    +0.255 HD
ATOM     96 HH22 ARG A   4      -8.655  -4.292   2.135  0.00  0.00    +0.255 HD
ATOM     97  NH1 ARG A   4      -6.420  -6.282   0.925  0.00  0.00    -0.292 N 
ATOM     98 HH11 ARG A   4      -5.572  -5.776   1.251  0.00  0.00    +0.255 HD
ATOM     99 HH12 ARG A   4      -6.323  -7.160   0.376  0.00  0.00    +0.255 HD
ATOM    100  HE  ARG A   4      -9.632  -6.068   1.054  0.00  0.00    +0.259 HD
ENDBRANCH  91  92
ENDBRANCH  90  91
ENDBRANCH  89  90
ENDBRANCH  66  89
ENDBRANCH  59  66
ENDBRANCH  55  62
ENDBRANCH  54  56
BRANCH  54 101
ATOM    101  CB  VAL A   6      -5.995 -15.265   3.898  0.00  0.00    +0.027 C 
ATOM    102  CG2 VAL A   6      -6.768 -15.949   5.000  0.00  0.00    +0.002 C 
ATOM    103  CG1 VAL A   6      -6.166 -13.756   3.976  0.00  0.00    +0.002 C 
ENDBRANCH  54 101
ENDBRANCH   1  54
TORSDOF 40
REMARK  Name = ../refined-set-2016/3iss/3iss_pocket.pdb
REMARK  237 active torsions:
REMARK  status: ('A' for Active; 'I' for Inactive)
REMARK    1  A    between atoms: _1  and  _3
REMARK    2  A    between atoms: _3  and  _4
REMARK    3  A    between atoms: _3  and  _6
REMARK    4  A    between atoms: _6  and  _7
REMARK    5  A    between atoms: _7  and  _8
REMARK    6  A    between atoms: _8  and  _9
REMARK    7  A    between atoms: _9  and  _10
REMARK    8  A    between atoms: _14  and  _16
REMARK    9  A    between atoms: _16  and  _17
REMARK   10  A    between atoms: _16  and  _19
REMARK   11  A    between atoms: _19  and  _20
REMARK   12  A    between atoms: _25  and  _27
REMARK   13  A    between atoms: _27  and  _28
REMARK   14  A    between atoms: _31  and  _33
REMARK   15  A    between atoms: _33  and  _34
REMARK   16  A    between atoms: _33  and  _36
REMARK   17  A    between atoms: _36  and  _37
REMARK   18  A    between atoms: _41  and  _42
REMARK   19  A    between atoms: _47  and  _49
REMARK   20  A    between atoms: _49  and  _50
REMARK   21  A    between atoms: _49  and  _52
REMARK   22  A    between atoms: _52  and  _53
REMARK   23  A    between atoms: _56  and  _58
REMARK   24  A    between atoms: _58  and  _59
REMARK   25  A    between atoms: _58  and  _61
REMARK   26  A    between atoms: _61  and  _62
REMARK   27  A    between atoms: _62  and  _63
REMARK   28  A    between atoms: _65  and  _67
REMARK   29  A    between atoms: _67  and  _68
REMARK   30  A    between atoms: _67  and  _70
REMARK   31  A    between atoms: _70  and  _71
REMARK   32  A    between atoms: _71  and  _72
REMARK   33  A    between atoms: _72  and  _73
REMARK   34  A    between atoms: _82  and  _84
REMARK   35  A    between atoms: _84  and  _85
REMARK   36  A    between atoms: _88  and  _90
REMARK   37  A    between atoms: _90  and  _91
REMARK   38  A    between atoms: _90  and  _93
REMARK   39  A    between atoms: _93  and  _94
REMARK   40  A    between atoms: _96  and  _98
REMARK   41  A    between atoms: _98  and  _99
REMARK   42  A    between atoms: _98  and  _101
REMARK   43  A    between atoms: _101  and  _102
REMARK   44  A    between atoms: _105  and  _107
REMARK   45  A    between atoms: _107  and  _108
REMARK   46  A    between atoms: _107  and  _110
REMARK   47  A    between atoms: _110  and  _111
REMARK   48  A    between atoms: _121  and  _123
REMARK   49  A    between atoms: _123  and  _124
REMARK   50  A    between atoms: _123  and  _126
REMARK   51  A    between atoms: _128  and  _130
REMARK   52  A    between atoms: _130  and  _131
REMARK   53  A    between atoms: _130  and  _133
REMARK   54  A    between atoms: _133  and  _134
REMARK   55  A    between atoms: _137  and  _139
REMARK   56  A    between atoms: _139  and  _140
REMARK   57  A    between atoms: _142  and  _144
REMARK   58  A    between atoms: _144  and  _145
REMARK   59  A    between atoms: _148  and  _150
REMARK   60  A    between atoms: _150  and  _151
REMARK   61  A    between atoms: _150  and  _153
REMARK   62  A    between atoms: _153  and  _154
REMARK   63  A    between atoms: _154  and  _155
REMARK   64  A    between atoms: _155  and  _156
REMARK   65  A    between atoms: _166  and  _167
REMARK   66  A    between atoms: _172  and  _174
REMARK   67  A    between atoms: _174  and  _175
REMARK   68  A    between atoms: _174  and  _177
REMARK   69  A    between atoms: _180  and  _182
REMARK   70  A    between atoms: _182  and  _183
REMARK   71  A    between atoms: _182  and  _185
REMARK   72  A    between atoms: _185  and  _186
REMARK   73  A    between atoms: _189  and  _191
REMARK   74  A    between atoms: _191  and  _192
REMARK   75  A    between atoms: _191  and  _194
REMARK   76  A    between atoms: _194  and  _195
REMARK   77  A    between atoms: _198  and  _200
REMARK   78  A    between atoms: _200  and  _201
REMARK   79  A    between atoms: _200  and  _203
REMARK   80  A    between atoms: _203  and  _204
REMARK   81  A    between atoms: _209  and  _211
REMARK   82  A    between atoms: _211  and  _212
REMARK   83  A    between atoms: _211  and  _214
REMARK   84  A    between atoms: _214  and  _215
REMARK   85  A    between atoms: _218  and  _220
REMARK   86  A    between atoms: _220  and  _221
REMARK   87  A    between atoms: _220  and  _223
REMARK   88  A    between atoms: _223  and  _224
REMARK   89  A    between atoms: _226  and  _228
REMARK   90  A    between atoms: _228  and  _229
REMARK   91  A    between atoms: _231  and  _233
REMARK   92  A    between atoms: _233  and  _234
REMARK   93  A    between atoms: _233  and  _236
REMARK   94  A    between atoms: _236  and  _237
REMARK   95  A    between atoms: _237  and  _238
REMARK   96  A    between atoms: _240  and  _242
REMARK   97  A    between atoms: _242  and  _243
REMARK   98  A    between atoms: _242  and  _245
REMARK   99  A    between atoms: _245  and  _246
REMARK  100  A    between atoms: _249  and  _251
REMARK  101  A    between atoms: _251  and  _252
REMARK  102  A    between atoms: _251  and  _254
REMARK  103  A    between atoms: _254  and  _255
REMARK  104  A    between atoms: _255  and  _256
REMARK  105  A    between atoms: _256  and  _257
REMARK  106  A    between atoms: _257  and  _258
REMARK  107  A    between atoms: _262  and  _264
REMARK  108  A    between atoms: _264  and  _265
REMARK  109  A    between atoms: _264  and  _267
REMARK  110  A    between atoms: _270  and  _272
REMARK  111  A    between atoms: _272  and  _273
REMARK  112  A    between atoms: _272  and  _275
REMARK  113  A    between atoms: _275  and  _276
REMARK  114  A    between atoms: _278  and  _280
REMARK  115  A    between atoms: _280  and  _281
REMARK  116  A    between atoms: _280  and  _283
REMARK  117  A    between atoms: _286  and  _288
REMARK  118  A    between atoms: _288  and  _289
REMARK  119  A    between atoms: _291  and  _293
REMARK  120  A    between atoms: _293  and  _294
REMARK  121  A    between atoms: _297  and  _299
REMARK  122  A    between atoms: _299  and  _300
REMARK  123  A    between atoms: _299  and  _302
REMARK  124  A    between atoms: _302  and  _303
REMARK  125  A    between atoms: _306  and  _308
REMARK  126  A    between atoms: _308  and  _309
REMARK  127  A    between atoms: _308  and  _311
REMARK  128  A    between atoms: _314  and  _316
REMARK  129  A    between atoms: _316  and  _317
REMARK  130  A    between atoms: _316  and  _319
REMARK  131  A    between atoms: _319  and  _320
REMARK  132  A    between atoms: _323  and  _325
REMARK  133  A    between atoms: _325  and  _326
REMARK  134  A    between atoms: _329  and  _331
REMARK  135  A    between atoms: _331  and  _332
REMARK  136  A    between atoms: _331  and  _334
REMARK  137  A    between atoms: _334  and  _335
REMARK  138  A    between atoms: _335  and  _336
REMARK  139  A    between atoms: _339  and  _341
REMARK  140  A    between atoms: _341  and  _342
REMARK  141  A    between atoms: _341  and  _344
REMARK  142  A    between atoms: _344  and  _345
REMARK  143  A    between atoms: _345  and  _346
REMARK  144  A    between atoms: _349  and  _351
REMARK  145  A    between atoms: _351  and  _352
REMARK  146  A    between atoms: _351  and  _354
REMARK  147  A    between atoms: _354  and  _355
REMARK  148  A    between atoms: _358  and  _360
REMARK  149  A    between atoms: _360  and  _361
REMARK  150  A    between atoms: _360  and  _363
REMARK  151  A    between atoms: _363  and  _364
REMARK  152  A    between atoms: _367  and  _369
REMARK  153  A    between atoms: _369  and  _370
REMARK  154  A    between atoms: _369  and  _372
REMARK  155  A    between atoms: _372  and  _373
REMARK  156  A    between atoms: _373  and  _374
REMARK  157  A    between atoms: _374  and  _375
REMARK  158  A    between atoms: _384  and  _386
REMARK  159  A    between atoms: _386  and  _387
REMARK  160  A    between atoms: _386  and  _389
REMARK  161  A    between atoms: _389  and  _390
REMARK  162  A    between atoms: _393  and  _395
REMARK  163  A    between atoms: _395  and  _396
REMARK  164  A    between atoms: _400  and  _401
REMARK  165  A    between atoms: _406  and  _408
REMARK  166  A    between atoms: _408  and  _409
REMARK  167  A    between atoms: _408  and  _411
REMARK  168  A    between atoms: _411  and  _412
REMARK  169  A    between atoms: _418  and  _419
REMARK  170  A    between atoms: _424  and  _426
REMARK  171  A    between atoms: _426  and  _427
REMARK  172  A    between atoms: _426  and  _429
REMARK  173  A    between atoms: _429  and  _430
REMARK  174  A    between atoms: _433  and  _435
REMARK  175  A    between atoms: _435  and  _436
REMARK  176  A    between atoms: _435  and  _438
REMARK  177  A    between atoms: _438  and  _439
REMARK  178  A    between atoms: _442  and  _444
REMARK  179  A    between atoms: _444  and  _445
REMARK  180  A    between atoms: _444  and  _447
REMARK  181  A    between atoms: _447  and  _448
REMARK  182  A    between atoms: _448  and  _449
REMARK  183  A    between atoms: _451  and  _453
REMARK  184  A    between atoms: _453  and  _454
REMARK  185  A    between atoms: _453  and  _456
REMARK  186  A    between atoms: _456  and  _457
REMARK  187  A    between atoms: _457  and  _458
REMARK  188  A    between atoms: _461  and  _463
REMARK  189  A    between atoms: _463  and  _464
REMARK  190  A    between atoms: _463  and  _466
REMARK  191  A    between atoms: _466  and  _467
REMARK  192  A    between atoms: _470  and  _472
REMARK  193  A    between atoms: _472  and  _473
REMARK  194  A    between atoms: _472  and  _475
REMARK  195  A    between atoms: _478  and  _480
REMARK  196  A    between atoms: _480  and  _481
REMARK  197  A    between atoms: _480  and  _483
REMARK  198  A    between atoms: _483  and  _484
REMARK  199  A    between atoms: _490  and  _492
REMARK  200  A    between atoms: _492  and  _493
REMARK  201  A    between atoms: _492  and  _495
REMARK  202  A    between atoms: _495  and  _496
REMARK  203  A    between atoms: _496  and  _497
REMARK  204  A    between atoms: _500  and  _502
REMARK  205  A    between atoms: _502  and  _503
REMARK  206  A    between atoms: _502  and  _505
REMARK  207  A    between atoms: _505  and  _506
REMARK  208  A    between atoms: _511  and  _513
REMARK  209  A    between atoms: _513  and  _514
REMARK  210  A    between atoms: _513  and  _516
REMARK  211  A    between atoms: _516  and  _517
REMARK  212  A    between atoms: _517  and  _518
REMARK  213  A    between atoms: _518  and  _519
REMARK  214  A    between atoms: _528  and  _530
REMARK  215  A    between atoms: _530  and  _531
REMARK  216  A    between atoms: _530  and  _533
REMARK  217  A    between atoms: _533  and  _534
REMARK  218  A    between atoms: _537  and  _539
REMARK  219  A    between atoms: _539  and  _540
REMARK  220  A    between atoms: _539  and  _542
REMARK  221  A    between atoms: _542  and  _543
REMARK  222  A    between atoms: _546  and  _548
REMARK  223  A    between atoms: _548  and  _549
REMARK  224  A    between atoms: _548  and  _551
REMARK  225  A    between atoms: _551  and  _552
REMARK  226  A    between atoms: _552  and  _553
REMARK  227  A    between atoms: _553  and  _554
REMARK  228  A    between atoms: _563  and  _565
REMARK  229  A    between atoms: _565  and  _566
REMARK  230  A    between atoms: _569  and  _571
REMARK  231  A    between atoms: _571  and  _572
REMARK  232  A    between atoms: _571  and  _574
REMARK  233  A    between atoms: _574  and  _575
REMARK  234  A    between atoms: _575  and  _576
REMARK  235  A    between atoms: _576  and  _577
REMARK  236  A    between atoms: _586  and  _588
REMARK  237  A    between atoms: _588  and  _589
REMARK                            x       y       z     vdW  Elec       q    Type
REMARK                         _______ _______ _______ _____ _____    ______ ____
ROOT
ATOM      1  C   SER A   5       0.259 -11.970  -3.881  0.00  0.00    +0.243 C 
ATOM      2  O   SER A   5       1.177 -12.686  -3.536  0.00  0.00    -0.273 OA
ATOM      3  N   VAL A   6       0.220 -10.663  -3.624  0.00  0.00    -0.297 N 
ATOM      4  H   VAL A   6      -0.586 -10.102  -3.966  0.00  0.00    +0.150 HD
ENDROOT
BRANCH   3   5
ATOM      5  CA  VAL A   6       1.281 -10.002  -2.875  0.00  0.00    +0.149 C 
BRANCH   5   6
ATOM      6  C   VAL A   6       1.396 -10.551  -1.454  0.00  0.00    +0.241 C 
ATOM      7  N   GLY A   7       0.261 -10.694  -0.774  0.00  0.00    -0.295 N 
ATOM      8  H   GLY A   7      -0.643 -10.487  -1.244  0.00  0.00    +0.150 HD
ATOM      9  O   VAL A   6       2.495 -10.838  -0.985  0.00  0.00    -0.273 OA
BRANCH   7  10
ATOM     10  CA  GLY A   7       0.258 -11.133   0.610  0.00  0.00    +0.176 C 
BRANCH  10  11
ATOM     11  C   GLY A   7       0.796 -12.536   0.807  0.00  0.00    +0.243 C 
ATOM     12  O   GLY A   7       1.632 -12.778   1.676  0.00  0.00    -0.273 OA
ATOM     13  N   ALA A   8       0.322 -13.466  -0.012  0.00  0.00    -0.297 N 
ATOM     14  H   ALA A   8      -0.343 -13.202  -0.767  0.00  0.00    +0.150 HD
BRANCH  13  15
ATOM     15  CA  ALA A   8       0.730 -14.853   0.144  0.00  0.00    +0.149 C 
ATOM     16  CB  ALA A   8      -0.229 -15.782  -0.604  0.00  0.00    +0.031 C 
BRANCH  15  17
ATOM     17  C   ALA A   8       2.190 -15.056  -0.295  0.00  0.00    +0.241 C 
ATOM     18  O   ALA A   8       2.940 -15.846   0.291  0.00  0.00    -0.273 OA
ATOM     19  N   THR A   9       2.602 -14.325  -1.312  0.00  0.00    -0.295 N 
ATOM     20  H   THR A   9       1.942 -13.687  -1.801  0.00  0.00    +0.150 HD
BRANCH  19  21
ATOM     21  CA  THR A   9       3.983 -14.419  -1.743  0.00  0.00    +0.176 C 
BRANCH  21  22
ATOM     22  C   THR A   9       4.894 -14.028  -0.591  0.00  0.00    +0.243 C 
ATOM     23  N   VAL A  10       4.533 -12.963   0.107  0.00  0.00    -0.297 N 
ATOM     24  H   VAL A  10       3.683 -12.430  -0.167  0.00  0.00    +0.150 HD
ATOM     25  O   THR A   9       5.890 -14.692  -0.313  0.00  0.00    -0.273 OA
BRANCH  23  26
ATOM     26  CA  VAL A  10       5.322 -12.529   1.262  0.00  0.00    +0.149 C 
BRANCH  26  27
ATOM     27  C   VAL A  10       5.288 -13.562   2.401  0.00  0.00    +0.241 C 
ATOM     28  O   VAL A  10       6.328 -13.901   2.956  0.00  0.00    -0.273 OA
ATOM     29  N   THR A  11       4.099 -14.067   2.732  0.00  0.00    -0.296 N 
ATOM     30  H   THR A  11       3.252 -13.741   2.224  0.00  0.00    +0.150 HD
BRANCH  29  31
ATOM     31  CA  THR A  11       3.954 -15.062   3.784  0.00  0.00    +0.164 C 
BRANCH  31  32
ATOM     32  CB  THR A  11       2.476 -15.554   3.927  0.00  0.00    +0.136 C 
ATOM     33  CG2 THR A  11       2.381 -16.762   4.844  0.00  0.00    +0.034 C 
BRANCH  32  34
ATOM     34  OG1 THR A  11       1.672 -14.504   4.468  0.00  0.00    -0.382 OA
ATOM     35  HG1 THR A  11       0.737 -14.818   4.557  0.00  0.00    +0.210 HD
ENDBRANCH  32  34
ENDBRANCH  31  32
BRANCH  31  36
ATOM     36  C   THR A  11       4.872 -16.269   3.537  0.00  0.00    +0.229 C 
ATOM     37  O   THR A  11       5.650 -16.675   4.403  0.00  0.00    -0.286 OA
ENDBRANCH  31  36
ENDBRANCH  29  31
ENDBRANCH  26  27
BRANCH  26  38
ATOM     38  CB  VAL A  10       4.883 -11.122   1.753  0.00  0.00    +0.027 C 
ATOM     39  CG2 VAL A  10       5.320 -10.870   3.175  0.00  0.00    +0.002 C 
ATOM     40  CG1 VAL A  10       5.437 -10.055   0.844  0.00  0.00    +0.002 C 
ENDBRANCH  26  38
ENDBRANCH  23  26
ENDBRANCH  21  22
BRANCH  21  41
ATOM     41  CB  THR A   9       4.251 -13.546  -2.969  0.00  0.00    +0.137 C 
ATOM     42  CG2 THR A   9       5.739 -13.421  -3.231  0.00  0.00    +0.034 C 
BRANCH  41  43
ATOM     43  OG1 THR A   9       3.619 -14.152  -4.105  0.00  0.00    -0.382 OA
ATOM     44  HG1 THR A   9       2.645 -14.218  -3.943  0.00  0.00    +0.210 HD
ENDBRANCH  41  43
ENDBRANCH  21  41
ENDBRANCH  19  21
ENDBRANCH  15  17
ENDBRANCH  13  15
ENDBRANCH  10  11
ENDBRANCH   7  10
ENDBRANCH   5   6
BRANCH   5  45
ATOM     45  CB  VAL A   6       1.054  -8.491  -2.780  0.00  0.00    +0.027 C 
ATOM     46  CG2 VAL A   6       2.043  -7.872  -1.761  0.00  0.00    +0.002 C 
ATOM     47  CG1 VAL A   6       1.164  -7.849  -4.162  0.00  0.00    +0.002 C 
ENDBRANCH   5  45
ENDBRANCH   3   5
BRANCH   1  48
ATOM     48  CA  SER A   5      -0.934 -12.558  -4.595  0.00  0.00    +0.178 C 
BRANCH  48  50
ATOM     49  C   VAL A   4      -1.394 -13.117  -6.913  0.00  0.00    +0.241 C 
ATOM     50  N   SER A   5      -0.583 -13.190  -5.859  0.00  0.00    -0.295 N 
ATOM     51  H   SER A   5       0.316 -13.707  -5.940  0.00  0.00    +0.150 HD
ATOM     52  O   VAL A   4      -2.478 -12.504  -6.899  0.00  0.00    -0.273 OA
BRANCH  49  53
ATOM     53  CA  VAL A   4      -0.939 -13.857  -8.160  0.00  0.00    +0.149 C 
BRANCH  53  56
ATOM     54  C   LYS A   3      -2.079 -15.968  -8.006  0.00  0.00    +0.241 C 
ATOM     55  O   LYS A   3      -1.357 -16.324  -7.076  0.00  0.00    -0.273 OA
ATOM     56  N   VAL A   4      -1.973 -14.779  -8.580  0.00  0.00    -0.297 N 
ATOM     57  H   VAL A   4      -2.635 -14.507  -9.335  0.00  0.00    +0.150 HD
BRANCH  54  58
ATOM     58  CA  LYS A   3      -3.129 -16.900  -8.585  0.00  0.00    +0.149 C 
BRANCH  58  60
ATOM     59  C   ASP A   2      -3.128 -19.296  -8.778  0.00  0.00    +0.241 C 
ATOM     60  N   LYS A   3      -3.063 -18.219  -8.008  0.00  0.00    -0.297 N 
ATOM     61  H   LYS A   3      -2.963 -18.327  -6.978  0.00  0.00    +0.150 HD
ATOM     62  O   ASP A   2      -3.404 -19.252  -9.973  0.00  0.00    -0.273 OA
BRANCH  59  63
ATOM     63  CA  ASP A   2      -2.876 -20.621  -8.084  0.00  0.00    +0.160 C 
BRANCH  63  65
ATOM     64  C   MET A   1      -0.484 -20.234  -7.737  0.00  0.00    +0.238 C 
ATOM     65  N   ASP A   2      -1.673 -20.569  -7.251  0.00  0.00    -0.297 N 
ATOM     66  H   ASP A   2      -1.753 -20.803  -6.241  0.00  0.00    +0.150 HD
ATOM     67  O   MET A   1      -0.307 -19.841  -8.881  0.00  0.00    -0.274 OA
BRANCH  64  68
ATOM     68  CA  MET A   1       0.664 -20.331  -6.760  0.00  0.00    +0.146 C 
BRANCH  68  69
ATOM     69  N   MET A   1       1.782 -21.136  -7.258  0.00  0.00    -0.238 NA
ATOM     70  H   MET A   1       2.613 -20.668  -7.673  0.00  0.00    +0.142 HD
ENDBRANCH  68  69
BRANCH  68  71
ATOM     71  CB  MET A   1       1.130 -18.939  -6.373  0.00  0.00    +0.038 C 
BRANCH  71  72
ATOM     72  CG  MET A   1       2.336 -18.952  -5.487  0.00  0.00    +0.060 C 
BRANCH  72  73
ATOM     73  SD  MET A   1       2.047 -18.042  -3.983  0.00  0.00    -0.139 S 
ATOM     74  CE  MET A   1       0.816 -19.081  -3.211  0.00  0.00    +0.069 C 
ENDBRANCH  72  73
ENDBRANCH  71  72
ENDBRANCH  68  71
ENDBRANCH  64  68
ENDBRANCH  63  65
BRANCH  63  75
ATOM     75  CB  ASP A   2      -4.086 -20.980  -7.232  0.00  0.00    +0.143 C 
BRANCH  75  76
ATOM     76  CG  ASP A   2      -4.782 -22.218  -7.717  0.00  0.00    +0.367 C 
ATOM     77  OD2 ASP A   2      -4.759 -23.236  -6.988  0.00  0.00    -0.246 OA
ATOM     78  OD1 ASP A   2      -5.353 -22.169  -8.823  0.00  0.00    -0.246 OA
ENDBRANCH  75  76
ENDBRANCH  63  75
ENDBRANCH  59  63
ENDBRANCH  58  60
BRANCH  58  79
ATOM     79  CB  LYS A   3      -4.519 -16.304  -8.459  0.00  0.00    +0.029 C 
BRANCH  79  80
ATOM     80  CG  LYS A   3      -5.335 -16.790  -7.302  0.00  0.00    +0.000 C 
BRANCH  80  81
ATOM     81  CD  LYS A   3      -6.780 -16.363  -7.543  0.00  0.00    -0.024 C 
BRANCH  81  82
ATOM     82  CE  LYS A   3      -7.659 -16.441  -6.302  0.00  0.00    -0.086 C 
BRANCH  82  83
ATOM     83  NZ  LYS A   3      -9.009 -15.857  -6.599  0.00  0.00    +0.380 N 
ATOM     84  HZ1 LYS A   3      -9.604 -15.913  -5.748  0.00  0.00    -0.089 HD
ATOM     85  HZ2 LYS A   3      -8.900 -14.862  -6.883  0.00  0.00    -0.089 HD
ATOM     86  HZ3 LYS A   3      -9.455 -16.392  -7.371  0.00  0.00    -0.089 HD
ENDBRANCH  82  83
ENDBRANCH  81  82
ENDBRANCH  80  81
ENDBRANCH  79  80
ENDBRANCH  58  79
ENDBRANCH  54  58
ENDBRANCH  53  56
BRANCH  53  87
ATOM     87  CB  VAL A   4      -0.596 -12.873  -9.275  0.00  0.00    +0.027 C 
ATOM     88  CG2 VAL A   4       0.245 -11.735  -8.720  0.00  0.00    +0.002 C 
ATOM     89  CG1 VAL A   4       0.123 -13.608 -10.393  0.00  0.00    +0.002 C 
ENDBRANCH  53  87
ENDBRANCH  49  53
ENDBRANCH  48  50
BRANCH  48  90
ATOM     90  CB  SER A   5      -1.599 -13.559  -3.663  0.00  0.00    +0.166 C 
BRANCH  90  91
ATOM     91  OG  SER A   5      -1.475 -13.157  -2.301  0.00  0.00    -0.380 OA
ATOM     92  H   SER A   5      -1.907 -12.275  -2.178  0.00  0.00    +0.211 HD
ENDBRANCH  90  91
ENDBRANCH  48  90
ENDBRANCH   1  48
TORSDOF 41
REMARK  Name = ../refined-set-2016/3iss/3iss_pocket.pdb
REMARK  237 active torsions:
REMARK  status: ('A' for Active; 'I' for Inactive)
REMARK    1  A    between atoms: _1  and  _3
REMARK    2  A    between atoms: _3  and  _4
REMARK    3  A    between atoms: _3  and  _6
REMARK    4  A    between atoms: _6  and  _7
REMARK    5  A    between atoms: _7  and  _8
REMARK    6  A    between atoms: _8  and  _9
REMARK    7  A    between atoms: _9  and  _10
REMARK    8  A    between atoms: _14  and  _16
REMARK    9  A    between atoms: _16  and  _17
REMARK   10  A    between atoms: _16  and  _19
REMARK   11  A    between atoms: _19  and  _20
REMARK   12  A    between atoms: _25  and  _27
REMARK   13  A    between atoms: _27  and  _28
REMARK   14  A    between atoms: _31  and  _33
REMARK   15  A    between atoms: _33  and  _34
REMARK   16  A    between atoms: _33  and  _36
REMARK   17  A    between atoms: _36  and  _37
REMARK   18  A    between atoms: _41  and  _42
REMARK   19  A    between atoms: _47  and  _49
REMARK   20  A    between atoms: _49  and  _50
REMARK   21  A    between atoms: _49  and  _52
REMARK   22  A    between atoms: _52  and  _53
REMARK   23  A    between atoms: _56  and  _58
REMARK   24  A    between atoms: _58  and  _59
REMARK   25  A    between atoms: _58  and  _61
REMARK   26  A    between atoms: _61  and  _62
REMARK   27  A    between atoms: _62  and  _63
REMARK   28  A    between atoms: _65  and  _67
REMARK   29  A    between atoms: _67  and  _68
REMARK   30  A    between atoms: _67  and  _70
REMARK   31  A    between atoms: _70  and  _71
REMARK   32  A    between atoms: _71  and  _72
REMARK   33  A    between atoms: _72  and  _73
REMARK   34  A    between atoms: _82  and  _84
REMARK   35  A    between atoms: _84  and  _85
REMARK   36  A    between atoms: _88  and  _90
REMARK   37  A    between atoms: _90  and  _91
REMARK   38  A    between atoms: _90  and  _93
REMARK   39  A    between atoms: _93  and  _94
REMARK   40  A    between atoms: _96  and  _98
REMARK   41  A    between atoms: _98  and  _99
REMARK   42  A    between atoms: _98  and  _101
REMARK   43  A    between atoms: _101  and  _102
REMARK   44  A    between atoms: _105  and  _107
REMARK   45  A    between atoms: _107  and  _108
REMARK   46  A    between atoms: _107  and  _110
REMARK   47  A    between atoms: _110  and  _111
REMARK   48  A    between atoms: _121  and  _123
REMARK   49  A    between atoms: _123  and  _124
REMARK   50  A    between atoms: _123  and  _126
REMARK   51  A    between atoms: _128  and  _130
REMARK   52  A    between atoms: _130  and  _131
REMARK   53  A    between atoms: _130  and  _133
REMARK   54  A    between atoms: _133  and  _134
REMARK   55  A    between atoms: _137  and  _139
REMARK   56  A    between atoms: _139  and  _140
REMARK   57  A    between atoms: _142  and  _144
REMARK   58  A    between atoms: _144  and  _145
REMARK   59  A    between atoms: _148  and  _150
REMARK   60  A    between atoms: _150  and  _151
REMARK   61  A    between atoms: _150  and  _153
REMARK   62  A    between atoms: _153  and  _154
REMARK   63  A    between atoms: _154  and  _155
REMARK   64  A    between atoms: _155  and  _156
REMARK   65  A    between atoms: _166  and  _167
REMARK   66  A    between atoms: _172  and  _174
REMARK   67  A    between atoms: _174  and  _175
REMARK   68  A    between atoms: _174  and  _177
REMARK   69  A    between atoms: _180  and  _182
REMARK   70  A    between atoms: _182  and  _183
REMARK   71  A    between atoms: _182  and  _185
REMARK   72  A    between atoms: _185  and  _186
REMARK   73  A    between atoms: _189  and  _191
REMARK   74  A    between atoms: _191  and  _192
REMARK   75  A    between atoms: _191  and  _194
REMARK   76  A    between atoms: _194  and  _195
REMARK   77  A    between atoms: _198  and  _200
REMARK   78  A    between atoms: _200  and  _201
REMARK   79  A    between atoms: _200  and  _203
REMARK   80  A    between atoms: _203  and  _204
REMARK   81  A    between atoms: _209  and  _211
REMARK   82  A    between atoms: _211  and  _212
REMARK   83  A    between atoms: _211  and  _214
REMARK   84  A    between atoms: _214  and  _215
REMARK   85  A    between atoms: _218  and  _220
REMARK   86  A    between atoms: _220  and  _221
REMARK   87  A    between atoms: _220  and  _223
REMARK   88  A    between atoms: _223  and  _224
REMARK   89  A    between atoms: _226  and  _228
REMARK   90  A    between atoms: _228  and  _229
REMARK   91  A    between atoms: _231  and  _233
REMARK   92  A    between atoms: _233  and  _234
REMARK   93  A    between atoms: _233  and  _236
REMARK   94  A    between atoms: _236  and  _237
REMARK   95  A    between atoms: _237  and  _238
REMARK   96  A    between atoms: _240  and  _242
REMARK   97  A    between atoms: _242  and  _243
REMARK   98  A    between atoms: _242  and  _245
REMARK   99  A    between atoms: _245  and  _246
REMARK  100  A    between atoms: _249  and  _251
REMARK  101  A    between atoms: _251  and  _252
REMARK  102  A    between atoms: _251  and  _254
REMARK  103  A    between atoms: _254  and  _255
REMARK  104  A    between atoms: _255  and  _256
REMARK  105  A    between atoms: _256  and  _257
REMARK  106  A    between atoms: _257  and  _258
REMARK  107  A    between atoms: _262  and  _264
REMARK  108  A    between atoms: _264  and  _265
REMARK  109  A    between atoms: _264  and  _267
REMARK  110  A    between atoms: _270  and  _272
REMARK  111  A    between atoms: _272  and  _273
REMARK  112  A    between atoms: _272  and  _275
REMARK  113  A    between atoms: _275  and  _276
REMARK  114  A    between atoms: _278  and  _280
REMARK  115  A    between atoms: _280  and  _281
REMARK  116  A    between atoms: _280  and  _283
REMARK  117  A    between atoms: _286  and  _288
REMARK  118  A    between atoms: _288  and  _289
REMARK  119  A    between atoms: _291  and  _293
REMARK  120  A    between atoms: _293  and  _294
REMARK  121  A    between atoms: _297  and  _299
REMARK  122  A    between atoms: _299  and  _300
REMARK  123  A    between atoms: _299  and  _302
REMARK  124  A    between atoms: _302  and  _303
REMARK  125  A    between atoms: _306  and  _308
REMARK  126  A    between atoms: _308  and  _309
REMARK  127  A    between atoms: _308  and  _311
REMARK  128  A    between atoms: _314  and  _316
REMARK  129  A    between atoms: _316  and  _317
REMARK  130  A    between atoms: _316  and  _319
REMARK  131  A    between atoms: _319  and  _320
REMARK  132  A    between atoms: _323  and  _325
REMARK  133  A    between atoms: _325  and  _326
REMARK  134  A    between atoms: _329  and  _331
REMARK  135  A    between atoms: _331  and  _332
REMARK  136  A    between atoms: _331  and  _334
REMARK  137  A    between atoms: _334  and  _335
REMARK  138  A    between atoms: _335  and  _336
REMARK  139  A    between atoms: _339  and  _341
REMARK  140  A    between atoms: _341  and  _342
REMARK  141  A    between atoms: _341  and  _344
REMARK  142  A    between atoms: _344  and  _345
REMARK  143  A    between atoms: _345  and  _346
REMARK  144  A    between atoms: _349  and  _351
REMARK  145  A    between atoms: _351  and  _352
REMARK  146  A    between atoms: _351  and  _354
REMARK  147  A    between atoms: _354  and  _355
REMARK  148  A    between atoms: _358  and  _360
REMARK  149  A    between atoms: _360  and  _361
REMARK  150  A    between atoms: _360  and  _363
REMARK  151  A    between atoms: _363  and  _364
REMARK  152  A    between atoms: _367  and  _369
REMARK  153  A    between atoms: _369  and  _370
REMARK  154  A    between atoms: _369  and  _372
REMARK  155  A    between atoms: _372  and  _373
REMARK  156  A    between atoms: _373  and  _374
REMARK  157  A    between atoms: _374  and  _375
REMARK  158  A    between atoms: _384  and  _386
REMARK  159  A    between atoms: _386  and  _387
REMARK  160  A    between atoms: _386  and  _389
REMARK  161  A    between atoms: _389  and  _390
REMARK  162  A    between atoms: _393  and  _395
REMARK  163  A    between atoms: _395  and  _396
REMARK  164  A    between atoms: _400  and  _401
REMARK  165  A    between atoms: _406  and  _408
REMARK  166  A    between atoms: _408  and  _409
REMARK  167  A    between atoms: _408  and  _411
REMARK  168  A    between atoms: _411  and  _412
REMARK  169  A    between atoms: _418  and  _419
REMARK  170  A    between atoms: _424  and  _426
REMARK  171  A    between atoms: _426  and  _427
REMARK  172  A    between atoms: _426  and  _429
REMARK  173  A    between atoms: _429  and  _430
REMARK  174  A    between atoms: _433  and  _435
REMARK  175  A    between atoms: _435  and  _436
REMARK  176  A    between atoms: _435  and  _438
REMARK  177  A    between atoms: _438  and  _439
REMARK  178  A    between atoms: _442  and  _444
REMARK  179  A    between atoms: _444  and  _445
REMARK  180  A    between atoms: _444  and  _447
REMARK  181  A    between atoms: _447  and  _448
REMARK  182  A    between atoms: _448  and  _449
REMARK  183  A    between atoms: _451  and  _453
REMARK  184  A    between atoms: _453  and  _454
REMARK  185  A    between atoms: _453  and  _456
REMARK  186  A    between atoms: _456  and  _457
REMARK  187  A    between atoms: _457  and  _458
REMARK  188  A    between atoms: _461  and  _463
REMARK  189  A    between atoms: _463  and  _464
REMARK  190  A    between atoms: _463  and  _466
REMARK  191  A    between atoms: _466  and  _467
REMARK  192  A    between atoms: _470  and  _472
REMARK  193  A    between atoms: _472  and  _473
REMARK  194  A    between atoms: _472  and  _475
REMARK  195  A    between atoms: _478  and  _480
REMARK  196  A    between atoms: _480  and  _481
REMARK  197  A    between atoms: _480  and  _483
REMARK  198  A    between atoms: _483  and  _484
REMARK  199  A    between atoms: _490  and  _492
REMARK  200  A    between atoms: _492  and  _493
REMARK  201  A    between atoms: _492  and  _495
REMARK  202  A    between atoms: _495  and  _496
REMARK  203  A    between atoms: _496  and  _497
REMARK  204  A    between atoms: _500  and  _502
REMARK  205  A    between atoms: _502  and  _503
REMARK  206  A    between atoms: _502  and  _505
REMARK  207  A    between atoms: _505  and  _506
REMARK  208  A    between atoms: _511  and  _513
REMARK  209  A    between atoms: _513  and  _514
REMARK  210  A    between atoms: _513  and  _516
REMARK  211  A    between atoms: _516  and  _517
REMARK  212  A    between atoms: _517  and  _518
REMARK  213  A    between atoms: _518  and  _519
REMARK  214  A    between atoms: _528  and  _530
REMARK  215  A    between atoms: _530  and  _531
REMARK  216  A    between atoms: _530  and  _533
REMARK  217  A    between atoms: _533  and  _534
REMARK  218  A    between atoms: _537  and  _539
REMARK  219  A    between atoms: _539  and  _540
REMARK  220  A    between atoms: _539  and  _542
REMARK  221  A    between atoms: _542  and  _543
REMARK  222  A    between atoms: _546  and  _548
REMARK  223  A    between atoms: _548  and  _549
REMARK  224  A    between atoms: _548  and  _551
REMARK  225  A    between atoms: _551  and  _552
REMARK  226  A    between atoms: _552  and  _553
REMARK  227  A    between atoms: _553  and  _554
REMARK  228  A    between atoms: _563  and  _565
REMARK  229  A    between atoms: _565  and  _566
REMARK  230  A    between atoms: _569  and  _571
REMARK  231  A    between atoms: _571  and  _572
REMARK  232  A    between atoms: _571  and  _574
REMARK  233  A    between atoms: _574  and  _575
REMARK  234  A    between atoms: _575  and  _576
REMARK  235  A    between atoms: _576  and  _577
REMARK  236  A    between atoms: _586  and  _588
REMARK  237  A    between atoms: _588  and  _589
REMARK                            x       y       z     vdW  Elec       q    Type
REMARK                         _______ _______ _______ _____ _____    ______ ____
ROOT
ATOM      1  CA  ALA A   1       4.038 -11.568  -7.241  0.00  0.00    +0.133 C 
ATOM      2  CB  ALA A   1       3.196 -10.981  -6.164  0.00  0.00    +0.027 C 
ENDROOT
BRANCH   1   3
ATOM      3  N   ALA A   1       4.287 -12.979  -6.969  0.00  0.00    -0.239 NA
ATOM      4  H   ALA A   1       4.112 -13.354  -6.015  0.00  0.00    +0.142 HD
ENDBRANCH   1   3
BRANCH   1   5
ATOM      5  C   ALA A   1       5.375 -10.820  -7.363  0.00  0.00    +0.224 C 
ATOM      6  O   ALA A   1       6.339 -11.138  -6.653  0.00  0.00    -0.287 OA
ENDBRANCH   1   5
TORSDOF 2
REMARK  Name = ../refined-set-2016/3iss/3iss_pocket.pdb
REMARK  237 active torsions:
REMARK  status: ('A' for Active; 'I' for Inactive)
REMARK    1  A    between atoms: _1  and  _3
REMARK    2  A    between atoms: _3  and  _4
REMARK    3  A    between atoms: _3  and  _6
REMARK    4  A    between atoms: _6  and  _7
REMARK    5  A    between atoms: _7  and  _8
REMARK    6  A    between atoms: _8  and  _9
REMARK    7  A    between atoms: _9  and  _10
REMARK    8  A    between atoms: _14  and  _16
REMARK    9  A    between atoms: _16  and  _17
REMARK   10  A    between atoms: _16  and  _19
REMARK   11  A    between atoms: _19  and  _20
REMARK   12  A    between atoms: _25  and  _27
REMARK   13  A    between atoms: _27  and  _28
REMARK   14  A    between atoms: _31  and  _33
REMARK   15  A    between atoms: _33  and  _34
REMARK   16  A    between atoms: _33  and  _36
REMARK   17  A    between atoms: _36  and  _37
REMARK   18  A    between atoms: _41  and  _42
REMARK   19  A    between atoms: _47  and  _49
REMARK   20  A    between atoms: _49  and  _50
REMARK   21  A    between atoms: _49  and  _52
REMARK   22  A    between atoms: _52  and  _53
REMARK   23  A    between atoms: _56  and  _58
REMARK   24  A    between atoms: _58  and  _59
REMARK   25  A    between atoms: _58  and  _61
REMARK   26  A    between atoms: _61  and  _62
REMARK   27  A    between atoms: _62  and  _63
REMARK   28  A    between atoms: _65  and  _67
REMARK   29  A    between atoms: _67  and  _68
REMARK   30  A    between atoms: _67  and  _70
REMARK   31  A    between atoms: _70  and  _71
REMARK   32  A    between atoms: _71  and  _72
REMARK   33  A    between atoms: _72  and  _73
REMARK   34  A    between atoms: _82  and  _84
REMARK   35  A    between atoms: _84  and  _85
REMARK   36  A    between atoms: _88  and  _90
REMARK   37  A    between atoms: _90  and  _91
REMARK   38  A    between atoms: _90  and  _93
REMARK   39  A    between atoms: _93  and  _94
REMARK   40  A    between atoms: _96  and  _98
REMARK   41  A    between atoms: _98  and  _99
REMARK   42  A    between atoms: _98  and  _101
REMARK   43  A    between atoms: _101  and  _102
REMARK   44  A    between atoms: _105  and  _107
REMARK   45  A    between atoms: _107  and  _108
REMARK   46  A    between atoms: _107  and  _110
REMARK   47  A    between atoms: _110  and  _111
REMARK   48  A    between atoms: _121  and  _123
REMARK   49  A    between atoms: _123  and  _124
REMARK   50  A    between atoms: _123  and  _126
REMARK   51  A    between atoms: _128  and  _130
REMARK   52  A    between atoms: _130  and  _131
REMARK   53  A    between atoms: _130  and  _133
REMARK   54  A    between atoms: _133  and  _134
REMARK   55  A    between atoms: _137  and  _139
REMARK   56  A    between atoms: _139  and  _140
REMARK   57  A    between atoms: _142  and  _144
REMARK   58  A    between atoms: _144  and  _145
REMARK   59  A    between atoms: _148  and  _150
REMARK   60  A    between atoms: _150  and  _151
REMARK   61  A    between atoms: _150  and  _153
REMARK   62  A    between atoms: _153  and  _154
REMARK   63  A    between atoms: _154  and  _155
REMARK   64  A    between atoms: _155  and  _156
REMARK   65  A    between atoms: _166  and  _167
REMARK   66  A    between atoms: _172  and  _174
REMARK   67  A    between atoms: _174  and  _175
REMARK   68  A    between atoms: _174  and  _177
REMARK   69  A    between atoms: _180  and  _182
REMARK   70  A    between atoms: _182  and  _183
REMARK   71  A    between atoms: _182  and  _185
REMARK   72  A    between atoms: _185  and  _186
REMARK   73  A    between atoms: _189  and  _191
REMARK   74  A    between atoms: _191  and  _192
REMARK   75  A    between atoms: _191  and  _194
REMARK   76  A    between atoms: _194  and  _195
REMARK   77  A    between atoms: _198  and  _200
REMARK   78  A    between atoms: _200  and  _201
REMARK   79  A    between atoms: _200  and  _203
REMARK   80  A    between atoms: _203  and  _204
REMARK   81  A    between atoms: _209  and  _211
REMARK   82  A    between atoms: _211  and  _212
REMARK   83  A    between atoms: _211  and  _214
REMARK   84  A    between atoms: _214  and  _215
REMARK   85  A    between atoms: _218  and  _220
REMARK   86  A    between atoms: _220  and  _221
REMARK   87  A    between atoms: _220  and  _223
REMARK   88  A    between atoms: _223  and  _224
REMARK   89  A    between atoms: _226  and  _228
REMARK   90  A    between atoms: _228  and  _229
REMARK   91  A    between atoms: _231  and  _233
REMARK   92  A    between atoms: _233  and  _234
REMARK   93  A    between atoms: _233  and  _236
REMARK   94  A    between atoms: _236  and  _237
REMARK   95  A    between atoms: _237  and  _238
REMARK   96  A    between atoms: _240  and  _242
REMARK   97  A    between atoms: _242  and  _243
REMARK   98  A    between atoms: _242  and  _245
REMARK   99  A    between atoms: _245  and  _246
REMARK  100  A    between atoms: _249  and  _251
REMARK  101  A    between atoms: _251  and  _252
REMARK  102  A    between atoms: _251  and  _254
REMARK  103  A    between atoms: _254  and  _255
REMARK  104  A    between atoms: _255  and  _256
REMARK  105  A    between atoms: _256  and  _257
REMARK  106  A    between atoms: _257  and  _258
REMARK  107  A    between atoms: _262  and  _264
REMARK  108  A    between atoms: _264  and  _265
REMARK  109  A    between atoms: _264  and  _267
REMARK  110  A    between atoms: _270  and  _272
REMARK  111  A    between atoms: _272  and  _273
REMARK  112  A    between atoms: _272  and  _275
REMARK  113  A    between atoms: _275  and  _276
REMARK  114  A    between atoms: _278  and  _280
REMARK  115  A    between atoms: _280  and  _281
REMARK  116  A    between atoms: _280  and  _283
REMARK  117  A    between atoms: _286  and  _288
REMARK  118  A    between atoms: _288  and  _289
REMARK  119  A    between atoms: _291  and  _293
REMARK  120  A    between atoms: _293  and  _294
REMARK  121  A    between atoms: _297  and  _299
REMARK  122  A    between atoms: _299  and  _300
REMARK  123  A    between atoms: _299  and  _302
REMARK  124  A    between atoms: _302  and  _303
REMARK  125  A    between atoms: _306  and  _308
REMARK  126  A    between atoms: _308  and  _309
REMARK  127  A    between atoms: _308  and  _311
REMARK  128  A    between atoms: _314  and  _316
REMARK  129  A    between atoms: _316  and  _317
REMARK  130  A    between atoms: _316  and  _319
REMARK  131  A    between atoms: _319  and  _320
REMARK  132  A    between atoms: _323  and  _325
REMARK  133  A    between atoms: _325  and  _326
REMARK  134  A    between atoms: _329  and  _331
REMARK  135  A    between atoms: _331  and  _332
REMARK  136  A    between atoms: _331  and  _334
REMARK  137  A    between atoms: _334  and  _335
REMARK  138  A    between atoms: _335  and  _336
REMARK  139  A    between atoms: _339  and  _341
REMARK  140  A    between atoms: _341  and  _342
REMARK  141  A    between atoms: _341  and  _344
REMARK  142  A    between atoms: _344  and  _345
REMARK  143  A    between atoms: _345  and  _346
REMARK  144  A    between atoms: _349  and  _351
REMARK  145  A    between atoms: _351  and  _352
REMARK  146  A    between atoms: _351  and  _354
REMARK  147  A    between atoms: _354  and  _355
REMARK  148  A    between atoms: _358  and  _360
REMARK  149  A    between atoms: _360  and  _361
REMARK  150  A    between atoms: _360  and  _363
REMARK  151  A    between atoms: _363  and  _364
REMARK  152  A    between atoms: _367  and  _369
REMARK  153  A    between atoms: _369  and  _370
REMARK  154  A    between atoms: _369  and  _372
REMARK  155  A    between atoms: _372  and  _373
REMARK  156  A    between atoms: _373  and  _374
REMARK  157  A    between atoms: _374  and  _375
REMARK  158  A    between atoms: _384  and  _386
REMARK  159  A    between atoms: _386  and  _387
REMARK  160  A    between atoms: _386  and  _389
REMARK  161  A    between atoms: _389  and  _390
REMARK  162  A    between atoms: _393  and  _395
REMARK  163  A    between atoms: _395  and  _396
REMARK  164  A    between atoms: _400  and  _401
REMARK  165  A    between atoms: _406  and  _408
REMARK  166  A    between atoms: _408  and  _409
REMARK  167  A    between atoms: _408  and  _411
REMARK  168  A    between atoms: _411  and  _412
REMARK  169  A    between atoms: _418  and  _419
REMARK  170  A    between atoms: _424  and  _426
REMARK  171  A    between atoms: _426  and  _427
REMARK  172  A    between atoms: _426  and  _429
REMARK  173  A    between atoms: _429  and  _430
REMARK  174  A    between atoms: _433  and  _435
REMARK  175  A    between atoms: _435  and  _436
REMARK  176  A    between atoms: _435  and  _438
REMARK  177  A    between atoms: _438  and  _439
REMARK  178  A    between atoms: _442  and  _444
REMARK  179  A    between atoms: _444  and  _445
REMARK  180  A    between atoms: _444  and  _447
REMARK  181  A    between atoms: _447  and  _448
REMARK  182  A    between atoms: _448  and  _449
REMARK  183  A    between atoms: _451  and  _453
REMARK  184  A    between atoms: _453  and  _454
REMARK  185  A    between atoms: _453  and  _456
REMARK  186  A    between atoms: _456  and  _457
REMARK  187  A    between atoms: _457  and  _458
REMARK  188  A    between atoms: _461  and  _463
REMARK  189  A    between atoms: _463  and  _464
REMARK  190  A    between atoms: _463  and  _466
REMARK  191  A    between atoms: _466  and  _467
REMARK  192  A    between atoms: _470  and  _472
REMARK  193  A    between atoms: _472  and  _473
REMARK  194  A    between atoms: _472  and  _475
REMARK  195  A    between atoms: _478  and  _480
REMARK  196  A    between atoms: _480  and  _481
REMARK  197  A    between atoms: _480  and  _483
REMARK  198  A    between atoms: _483  and  _484
REMARK  199  A    between atoms: _490  and  _492
REMARK  200  A    between atoms: _492  and  _493
REMARK  201  A    between atoms: _492  and  _495
REMARK  202  A    between atoms: _495  and  _496
REMARK  203  A    between atoms: _496  and  _497
REMARK  204  A    between atoms: _500  and  _502
REMARK  205  A    between atoms: _502  and  _503
REMARK  206  A    between atoms: _502  and  _505
REMARK  207  A    between atoms: _505  and  _506
REMARK  208  A    between atoms: _511  and  _513
REMARK  209  A    between atoms: _513  and  _514
REMARK  210  A    between atoms: _513  and  _516
REMARK  211  A    between atoms: _516  and  _517
REMARK  212  A    between atoms: _517  and  _518
REMARK  213  A    between atoms: _518  and  _519
REMARK  214  A    between atoms: _528  and  _530
REMARK  215  A    between atoms: _530  and  _531
REMARK  216  A    between atoms: _530  and  _533
REMARK  217  A    between atoms: _533  and  _534
REMARK  218  A    between atoms: _537  and  _539
REMARK  219  A    between atoms: _539  and  _540
REMARK  220  A    between atoms: _539  and  _542
REMARK  221  A    between atoms: _542  and  _543
REMARK  222  A    between atoms: _546  and  _548
REMARK  223  A    between atoms: _548  and  _549
REMARK  224  A    between atoms: _548  and  _551
REMARK  225  A    between atoms: _551  and  _552
REMARK  226  A    between atoms: _552  and  _553
REMARK  227  A    between atoms: _553  and  _554
REMARK  228  A    between atoms: _563  and  _565
REMARK  229  A    between atoms: _565  and  _566
REMARK  230  A    between atoms: _569  and  _571
REMARK  231  A    between atoms: _571  and  _572
REMARK  232  A    between atoms: _571  and  _574
REMARK  233  A    between atoms: _574  and  _575
REMARK  234  A    between atoms: _575  and  _576
REMARK  235  A    between atoms: _576  and  _577
REMARK  236  A    between atoms: _586  and  _588
REMARK  237  A    between atoms: _588  and  _589
REMARK                            x       y       z     vdW  Elec       q    Type
REMARK                         _______ _______ _______ _____ _____    ______ ____
ROOT
ATOM      1  CA  GLU A   1       5.734  -6.006  -6.634  0.00  0.00    +0.134 C 
ENDROOT
BRANCH   1   2
ATOM      2  N   GLU A   1       5.779  -7.352  -7.228  0.00  0.00    -0.239 NA
ATOM      3  H   GLU A   1       5.012  -8.021  -7.013  0.00  0.00    +0.142 HD
ENDBRANCH   1   2
BRANCH   1   4
ATOM      4  C   GLU A   1       7.090  -5.553  -6.047  0.00  0.00    +0.224 C 
ATOM      5  O   GLU A   1       7.782  -6.337  -5.383  0.00  0.00    -0.287 OA
ENDBRANCH   1   4
BRANCH   1   6
ATOM      6  CB  GLU A   1       4.626  -5.917  -5.565  0.00  0.00    +0.037 C 
BRANCH   6   7
ATOM      7  CG  GLU A   1       3.263  -5.448  -6.082  0.00  0.00    +0.116 C 
BRANCH   7   8
ATOM      8  CD  GLU A   1       2.606  -6.433  -7.067  0.00  0.00    +0.365 C 
ATOM      9  OE2 GLU A   1       3.129  -7.564  -7.241  0.00  0.00    -0.246 OA
ATOM     10  OE1 GLU A   1       1.557  -6.074  -7.662  0.00  0.00    -0.246 OA
ENDBRANCH   7   8
ENDBRANCH   6   7
ENDBRANCH   1   6
TORSDOF 5
REMARK  Name = ../refined-set-2016/3iss/3iss_pocket.pdb
REMARK  237 active torsions:
REMARK  status: ('A' for Active; 'I' for Inactive)
REMARK    1  A    between atoms: _1  and  _3
REMARK    2  A    between atoms: _3  and  _4
REMARK    3  A    between atoms: _3  and  _6
REMARK    4  A    between atoms: _6  and  _7
REMARK    5  A    between atoms: _7  and  _8
REMARK    6  A    between atoms: _8  and  _9
REMARK    7  A    between atoms: _9  and  _10
REMARK    8  A    between atoms: _14  and  _16
REMARK    9  A    between atoms: _16  and  _17
REMARK   10  A    between atoms: _16  and  _19
REMARK   11  A    between atoms: _19  and  _20
REMARK   12  A    between atoms: _25  and  _27
REMARK   13  A    between atoms: _27  and  _28
REMARK   14  A    between atoms: _31  and  _33
REMARK   15  A    between atoms: _33  and  _34
REMARK   16  A    between atoms: _33  and  _36
REMARK   17  A    between atoms: _36  and  _37
REMARK   18  A    between atoms: _41  and  _42
REMARK   19  A    between atoms: _47  and  _49
REMARK   20  A    between atoms: _49  and  _50
REMARK   21  A    between atoms: _49  and  _52
REMARK   22  A    between atoms: _52  and  _53
REMARK   23  A    between atoms: _56  and  _58
REMARK   24  A    between atoms: _58  and  _59
REMARK   25  A    between atoms: _58  and  _61
REMARK   26  A    between atoms: _61  and  _62
REMARK   27  A    between atoms: _62  and  _63
REMARK   28  A    between atoms: _65  and  _67
REMARK   29  A    between atoms: _67  and  _68
REMARK   30  A    between atoms: _67  and  _70
REMARK   31  A    between atoms: _70  and  _71
REMARK   32  A    between atoms: _71  and  _72
REMARK   33  A    between atoms: _72  and  _73
REMARK   34  A    between atoms: _82  and  _84
REMARK   35  A    between atoms: _84  and  _85
REMARK   36  A    between atoms: _88  and  _90
REMARK   37  A    between atoms: _90  and  _91
REMARK   38  A    between atoms: _90  and  _93
REMARK   39  A    between atoms: _93  and  _94
REMARK   40  A    between atoms: _96  and  _98
REMARK   41  A    between atoms: _98  and  _99
REMARK   42  A    between atoms: _98  and  _101
REMARK   43  A    between atoms: _101  and  _102
REMARK   44  A    between atoms: _105  and  _107
REMARK   45  A    between atoms: _107  and  _108
REMARK   46  A    between atoms: _107  and  _110
REMARK   47  A    between atoms: _110  and  _111
REMARK   48  A    between atoms: _121  and  _123
REMARK   49  A    between atoms: _123  and  _124
REMARK   50  A    between atoms: _123  and  _126
REMARK   51  A    between atoms: _128  and  _130
REMARK   52  A    between atoms: _130  and  _131
REMARK   53  A    between atoms: _130  and  _133
REMARK   54  A    between atoms: _133  and  _134
REMARK   55  A    between atoms: _137  and  _139
REMARK   56  A    between atoms: _139  and  _140
REMARK   57  A    between atoms: _142  and  _144
REMARK   58  A    between atoms: _144  and  _145
REMARK   59  A    between atoms: _148  and  _150
REMARK   60  A    between atoms: _150  and  _151
REMARK   61  A    between atoms: _150  and  _153
REMARK   62  A    between atoms: _153  and  _154
REMARK   63  A    between atoms: _154  and  _155
REMARK   64  A    between atoms: _155  and  _156
REMARK   65  A    between atoms: _166  and  _167
REMARK   66  A    between atoms: _172  and  _174
REMARK   67  A    between atoms: _174  and  _175
REMARK   68  A    between atoms: _174  and  _177
REMARK   69  A    between atoms: _180  and  _182
REMARK   70  A    between atoms: _182  and  _183
REMARK   71  A    between atoms: _182  and  _185
REMARK   72  A    between atoms: _185  and  _186
REMARK   73  A    between atoms: _189  and  _191
REMARK   74  A    between atoms: _191  and  _192
REMARK   75  A    between atoms: _191  and  _194
REMARK   76  A    between atoms: _194  and  _195
REMARK   77  A    between atoms: _198  and  _200
REMARK   78  A    between atoms: _200  and  _201
REMARK   79  A    between atoms: _200  and  _203
REMARK   80  A    between atoms: _203  and  _204
REMARK   81  A    between atoms: _209  and  _211
REMARK   82  A    between atoms: _211  and  _212
REMARK   83  A    between atoms: _211  and  _214
REMARK   84  A    between atoms: _214  and  _215
REMARK   85  A    between atoms: _218  and  _220
REMARK   86  A    between atoms: _220  and  _221
REMARK   87  A    between atoms: _220  and  _223
REMARK   88  A    between atoms: _223  and  _224
REMARK   89  A    between atoms: _226  and  _228
REMARK   90  A    between atoms: _228  and  _229
REMARK   91  A    between atoms: _231  and  _233
REMARK   92  A    between atoms: _233  and  _234
REMARK   93  A    between atoms: _233  and  _236
REMARK   94  A    between atoms: _236  and  _237
REMARK   95  A    between atoms: _237  and  _238
REMARK   96  A    between atoms: _240  and  _242
REMARK   97  A    between atoms: _242  and  _243
REMARK   98  A    between atoms: _242  and  _245
REMARK   99  A    between atoms: _245  and  _246
REMARK  100  A    between atoms: _249  and  _251
REMARK  101  A    between atoms: _251  and  _252
REMARK  102  A    between atoms: _251  and  _254
REMARK  103  A    between atoms: _254  and  _255
REMARK  104  A    between atoms: _255  and  _256
REMARK  105  A    between atoms: _256  and  _257
REMARK  106  A    between atoms: _257  and  _258
REMARK  107  A    between atoms: _262  and  _264
REMARK  108  A    between atoms: _264  and  _265
REMARK  109  A    between atoms: _264  and  _267
REMARK  110  A    between atoms: _270  and  _272
REMARK  111  A    between atoms: _272  and  _273
REMARK  112  A    between atoms: _272  and  _275
REMARK  113  A    between atoms: _275  and  _276
REMARK  114  A    between atoms: _278  and  _280
REMARK  115  A    between atoms: _280  and  _281
REMARK  116  A    between atoms: _280  and  _283
REMARK  117  A    between atoms: _286  and  _288
REMARK  118  A    between atoms: _288  and  _289
REMARK  119  A    between atoms: _291  and  _293
REMARK  120  A    between atoms: _293  and  _294
REMARK  121  A    between atoms: _297  and  _299
REMARK  122  A    between atoms: _299  and  _300
REMARK  123  A    between atoms: _299  and  _302
REMARK  124  A    between atoms: _302  and  _303
REMARK  125  A    between atoms: _306  and  _308
REMARK  126  A    between atoms: _308  and  _309
REMARK  127  A    between atoms: _308  and  _311
REMARK  128  A    between atoms: _314  and  _316
REMARK  129  A    between atoms: _316  and  _317
REMARK  130  A    between atoms: _316  and  _319
REMARK  131  A    between atoms: _319  and  _320
REMARK  132  A    between atoms: _323  and  _325
REMARK  133  A    between atoms: _325  and  _326
REMARK  134  A    between atoms: _329  and  _331
REMARK  135  A    between atoms: _331  and  _332
REMARK  136  A    between atoms: _331  and  _334
REMARK  137  A    between atoms: _334  and  _335
REMARK  138  A    between atoms: _335  and  _336
REMARK  139  A    between atoms: _339  and  _341
REMARK  140  A    between atoms: _341  and  _342
REMARK  141  A    between atoms: _341  and  _344
REMARK  142  A    between atoms: _344  and  _345
REMARK  143  A    between atoms: _345  and  _346
REMARK  144  A    between atoms: _349  and  _351
REMARK  145  A    between atoms: _351  and  _352
REMARK  146  A    between atoms: _351  and  _354
REMARK  147  A    between atoms: _354  and  _355
REMARK  148  A    between atoms: _358  and  _360
REMARK  149  A    between atoms: _360  and  _361
REMARK  150  A    between atoms: _360  and  _363
REMARK  151  A    between atoms: _363  and  _364
REMARK  152  A    between atoms: _367  and  _369
REMARK  153  A    between atoms: _369  and  _370
REMARK  154  A    between atoms: _369  and  _372
REMARK  155  A    between atoms: _372  and  _373
REMARK  156  A    between atoms: _373  and  _374
REMARK  157  A    between atoms: _374  and  _375
REMARK  158  A    between atoms: _384  and  _386
REMARK  159  A    between atoms: _386  and  _387
REMARK  160  A    between atoms: _386  and  _389
REMARK  161  A    between atoms: _389  and  _390
REMARK  162  A    between atoms: _393  and  _395
REMARK  163  A    between atoms: _395  and  _396
REMARK  164  A    between atoms: _400  and  _401
REMARK  165  A    between atoms: _406  and  _408
REMARK  166  A    between atoms: _408  and  _409
REMARK  167  A    between atoms: _408  and  _411
REMARK  168  A    between atoms: _411  and  _412
REMARK  169  A    between atoms: _418  and  _419
REMARK  170  A    between atoms: _424  and  _426
REMARK  171  A    between atoms: _426  and  _427
REMARK  172  A    between atoms: _426  and  _429
REMARK  173  A    between atoms: _429  and  _430
REMARK  174  A    between atoms: _433  and  _435
REMARK  175  A    between atoms: _435  and  _436
REMARK  176  A    between atoms: _435  and  _438
REMARK  177  A    between atoms: _438  and  _439
REMARK  178  A    between atoms: _442  and  _444
REMARK  179  A    between atoms: _444  and  _445
REMARK  180  A    between atoms: _444  and  _447
REMARK  181  A    between atoms: _447  and  _448
REMARK  182  A    between atoms: _448  and  _449
REMARK  183  A    between atoms: _451  and  _453
REMARK  184  A    between atoms: _453  and  _454
REMARK  185  A    between atoms: _453  and  _456
REMARK  186  A    between atoms: _456  and  _457
REMARK  187  A    between atoms: _457  and  _458
REMARK  188  A    between atoms: _461  and  _463
REMARK  189  A    between atoms: _463  and  _464
REMARK  190  A    between atoms: _463  and  _466
REMARK  191  A    between atoms: _466  and  _467
REMARK  192  A    between atoms: _470  and  _472
REMARK  193  A    between atoms: _472  and  _473
REMARK  194  A    between atoms: _472  and  _475
REMARK  195  A    between atoms: _478  and  _480
REMARK  196  A    between atoms: _480  and  _481
REMARK  197  A    between atoms: _480  and  _483
REMARK  198  A    between atoms: _483  and  _484
REMARK  199  A    between atoms: _490  and  _492
REMARK  200  A    between atoms: _492  and  _493
REMARK  201  A    between atoms: _492  and  _495
REMARK  202  A    between atoms: _495  and  _496
REMARK  203  A    between atoms: _496  and  _497
REMARK  204  A    between atoms: _500  and  _502
REMARK  205  A    between atoms: _502  and  _503
REMARK  206  A    between atoms: _502  and  _505
REMARK  207  A    between atoms: _505  and  _506
REMARK  208  A    between atoms: _511  and  _513
REMARK  209  A    between atoms: _513  and  _514
REMARK  210  A    between atoms: _513  and  _516
REMARK  211  A    between atoms: _516  and  _517
REMARK  212  A    between atoms: _517  and  _518
REMARK  213  A    between atoms: _518  and  _519
REMARK  214  A    between atoms: _528  and  _530
REMARK  215  A    between atoms: _530  and  _531
REMARK  216  A    between atoms: _530  and  _533
REMARK  217  A    between atoms: _533  and  _534
REMARK  218  A    between atoms: _537  and  _539
REMARK  219  A    between atoms: _539  and  _540
REMARK  220  A    between atoms: _539  and  _542
REMARK  221  A    between atoms: _542  and  _543
REMARK  222  A    between atoms: _546  and  _548
REMARK  223  A    between atoms: _548  and  _549
REMARK  224  A    between atoms: _548  and  _551
REMARK  225  A    between atoms: _551  and  _552
REMARK  226  A    between atoms: _552  and  _553
REMARK  227  A    between atoms: _553  and  _554
REMARK  228  A    between atoms: _563  and  _565
REMARK  229  A    between atoms: _565  and  _566
REMARK  230  A    between atoms: _569  and  _571
REMARK  231  A    between atoms: _571  and  _572
REMARK  232  A    between atoms: _571  and  _574
REMARK  233  A    between atoms: _574  and  _575
REMARK  234  A    between atoms: _575  and  _576
REMARK  235  A    between atoms: _576  and  _577
REMARK  236  A    between atoms: _586  and  _588
REMARK  237  A    between atoms: _588  and  _589
REMARK                            x       y       z     vdW  Elec       q    Type
REMARK                         _______ _______ _______ _____ _____    ______ ____
ROOT
ATOM      1  C   GLU A   1       8.221  -5.529  -1.686  0.00  0.00    +0.238 C 
ATOM      2  O   GLU A   1       8.752  -5.761  -0.581  0.00  0.00    -0.274 OA
ATOM      3  N   ILE A   2       7.990  -6.484  -2.581  0.00  0.00    -0.298 N 
ATOM      4  H   ILE A   2       7.548  -6.233  -3.488  0.00  0.00    +0.150 HD
ENDROOT
BRANCH   1   5
ATOM      5  CA  GLU A   1       7.786  -4.102  -2.094  0.00  0.00    +0.145 C 
BRANCH   5   6
ATOM      6  N   GLU A   1       7.756  -3.917  -3.538  0.00  0.00    -0.238 NA
ATOM      7  H   GLU A   1       6.846  -3.734  -4.008  0.00  0.00    +0.142 HD
ENDBRANCH   5   6
BRANCH   5   8
ATOM      8  CB  GLU A   1       6.423  -3.746  -1.482  0.00  0.00    +0.038 C 
BRANCH   8   9
ATOM      9  CG  GLU A   1       6.030  -2.295  -1.653  0.00  0.00    +0.116 C 
BRANCH   9  10
ATOM     10  CD  GLU A   1       5.479  -1.971  -3.029  0.00  0.00    +0.365 C 
ATOM     11  OE2 GLU A   1       5.515  -0.793  -3.425  0.00  0.00    -0.246 OA
ATOM     12  OE1 GLU A   1       4.986  -2.880  -3.703  0.00  0.00    -0.246 OA
ENDBRANCH   9  10
ENDBRANCH   8   9
ENDBRANCH   5   8
ENDBRANCH   1   5
BRANCH   3  13
ATOM     13  CA  ILE A   2       8.339  -7.867  -2.323  0.00  0.00    +0.137 C 
BRANCH  13  14
ATOM     14  C   ILE A   2       9.836  -8.007  -2.506  0.00  0.00    +0.227 C 
ATOM     15  O   ILE A   2      10.484  -8.800  -1.826  0.00  0.00    -0.286 OA
ENDBRANCH  13  14
BRANCH  13  16
ATOM     16  CB  ILE A   2       7.591  -8.808  -3.270  0.00  0.00    +0.026 C 
ATOM     17  CG2 ILE A   2       8.203 -10.194  -3.243  0.00  0.00    +0.002 C 
BRANCH  16  18
ATOM     18  CG1 ILE A   2       6.114  -8.856  -2.879  0.00  0.00    +0.002 C 
ATOM     19  CD1 ILE A   2       5.338  -9.929  -3.568  0.00  0.00    +0.000 C 
ENDBRANCH  16  18
ENDBRANCH  13  16
ENDBRANCH   3  13
TORSDOF 9
REMARK  Name = ../refined-set-2016/3iss/3iss_pocket.pdb
REMARK  237 active torsions:
REMARK  status: ('A' for Active; 'I' for Inactive)
REMARK    1  A    between atoms: _1  and  _3
REMARK    2  A    between atoms: _3  and  _4
REMARK    3  A    between atoms: _3  and  _6
REMARK    4  A    between atoms: _6  and  _7
REMARK    5  A    between atoms: _7  and  _8
REMARK    6  A    between atoms: _8  and  _9
REMARK    7  A    between atoms: _9  and  _10
REMARK    8  A    between atoms: _14  and  _16
REMARK    9  A    between atoms: _16  and  _17
REMARK   10  A    between atoms: _16  and  _19
REMARK   11  A    between atoms: _19  and  _20
REMARK   12  A    between atoms: _25  and  _27
REMARK   13  A    between atoms: _27  and  _28
REMARK   14  A    between atoms: _31  and  _33
REMARK   15  A    between atoms: _33  and  _34
REMARK   16  A    between atoms: _33  and  _36
REMARK   17  A    between atoms: _36  and  _37
REMARK   18  A    between atoms: _41  and  _42
REMARK   19  A    between atoms: _47  and  _49
REMARK   20  A    between atoms: _49  and  _50
REMARK   21  A    between atoms: _49  and  _52
REMARK   22  A    between atoms: _52  and  _53
REMARK   23  A    between atoms: _56  and  _58
REMARK   24  A    between atoms: _58  and  _59
REMARK   25  A    between atoms: _58  and  _61
REMARK   26  A    between atoms: _61  and  _62
REMARK   27  A    between atoms: _62  and  _63
REMARK   28  A    between atoms: _65  and  _67
REMARK   29  A    between atoms: _67  and  _68
REMARK   30  A    between atoms: _67  and  _70
REMARK   31  A    between atoms: _70  and  _71
REMARK   32  A    between atoms: _71  and  _72
REMARK   33  A    between atoms: _72  and  _73
REMARK   34  A    between atoms: _82  and  _84
REMARK   35  A    between atoms: _84  and  _85
REMARK   36  A    between atoms: _88  and  _90
REMARK   37  A    between atoms: _90  and  _91
REMARK   38  A    between atoms: _90  and  _93
REMARK   39  A    between atoms: _93  and  _94
REMARK   40  A    between atoms: _96  and  _98
REMARK   41  A    between atoms: _98  and  _99
REMARK   42  A    between atoms: _98  and  _101
REMARK   43  A    between atoms: _101  and  _102
REMARK   44  A    between atoms: _105  and  _107
REMARK   45  A    between atoms: _107  and  _108
REMARK   46  A    between atoms: _107  and  _110
REMARK   47  A    between atoms: _110  and  _111
REMARK   48  A    between atoms: _121  and  _123
REMARK   49  A    between atoms: _123  and  _124
REMARK   50  A    between atoms: _123  and  _126
REMARK   51  A    between atoms: _128  and  _130
REMARK   52  A    between atoms: _130  and  _131
REMARK   53  A    between atoms: _130  and  _133
REMARK   54  A    between atoms: _133  and  _134
REMARK   55  A    between atoms: _137  and  _139
REMARK   56  A    between atoms: _139  and  _140
REMARK   57  A    between atoms: _142  and  _144
REMARK   58  A    between atoms: _144  and  _145
REMARK   59  A    between atoms: _148  and  _150
REMARK   60  A    between atoms: _150  and  _151
REMARK   61  A    between atoms: _150  and  _153
REMARK   62  A    between atoms: _153  and  _154
REMARK   63  A    between atoms: _154  and  _155
REMARK   64  A    between atoms: _155  and  _156
REMARK   65  A    between atoms: _166  and  _167
REMARK   66  A    between atoms: _172  and  _174
REMARK   67  A    between atoms: _174  and  _175
REMARK   68  A    between atoms: _174  and  _177
REMARK   69  A    between atoms: _180  and  _182
REMARK   70  A    between atoms: _182  and  _183
REMARK   71  A    between atoms: _182  and  _185
REMARK   72  A    between atoms: _185  and  _186
REMARK   73  A    between atoms: _189  and  _191
REMARK   74  A    between atoms: _191  and  _192
REMARK   75  A    between atoms: _191  and  _194
REMARK   76  A    between atoms: _194  and  _195
REMARK   77  A    between atoms: _198  and  _200
REMARK   78  A    between atoms: _200  and  _201
REMARK   79  A    between atoms: _200  and  _203
REMARK   80  A    between atoms: _203  and  _204
REMARK   81  A    between atoms: _209  and  _211
REMARK   82  A    between atoms: _211  and  _212
REMARK   83  A    between atoms: _211  and  _214
REMARK   84  A    between atoms: _214  and  _215
REMARK   85  A    between atoms: _218  and  _220
REMARK   86  A    between atoms: _220  and  _221
REMARK   87  A    between atoms: _220  and  _223
REMARK   88  A    between atoms: _223  and  _224
REMARK   89  A    between atoms: _226  and  _228
REMARK   90  A    between atoms: _228  and  _229
REMARK   91  A    between atoms: _231  and  _233
REMARK   92  A    between atoms: _233  and  _234
REMARK   93  A    between atoms: _233  and  _236
REMARK   94  A    between atoms: _236  and  _237
REMARK   95  A    between atoms: _237  and  _238
REMARK   96  A    between atoms: _240  and  _242
REMARK   97  A    between atoms: _242  and  _243
REMARK   98  A    between atoms: _242  and  _245
REMARK   99  A    between atoms: _245  and  _246
REMARK  100  A    between atoms: _249  and  _251
REMARK  101  A    between atoms: _251  and  _252
REMARK  102  A    between atoms: _251  and  _254
REMARK  103  A    between atoms: _254  and  _255
REMARK  104  A    between atoms: _255  and  _256
REMARK  105  A    between atoms: _256  and  _257
REMARK  106  A    between atoms: _257  and  _258
REMARK  107  A    between atoms: _262  and  _264
REMARK  108  A    between atoms: _264  and  _265
REMARK  109  A    between atoms: _264  and  _267
REMARK  110  A    between atoms: _270  and  _272
REMARK  111  A    between atoms: _272  and  _273
REMARK  112  A    between atoms: _272  and  _275
REMARK  113  A    between atoms: _275  and  _276
REMARK  114  A    between atoms: _278  and  _280
REMARK  115  A    between atoms: _280  and  _281
REMARK  116  A    between atoms: _280  and  _283
REMARK  117  A    between atoms: _286  and  _288
REMARK  118  A    between atoms: _288  and  _289
REMARK  119  A    between atoms: _291  and  _293
REMARK  120  A    between atoms: _293  and  _294
REMARK  121  A    between atoms: _297  and  _299
REMARK  122  A    between atoms: _299  and  _300
REMARK  123  A    between atoms: _299  and  _302
REMARK  124  A    between atoms: _302  and  _303
REMARK  125  A    between atoms: _306  and  _308
REMARK  126  A    between atoms: _308  and  _309
REMARK  127  A    between atoms: _308  and  _311
REMARK  128  A    between atoms: _314  and  _316
REMARK  129  A    between atoms: _316  and  _317
REMARK  130  A    between atoms: _316  and  _319
REMARK  131  A    between atoms: _319  and  _320
REMARK  132  A    between atoms: _323  and  _325
REMARK  133  A    between atoms: _325  and  _326
REMARK  134  A    between atoms: _329  and  _331
REMARK  135  A    between atoms: _331  and  _332
REMARK  136  A    between atoms: _331  and  _334
REMARK  137  A    between atoms: _334  and  _335
REMARK  138  A    between atoms: _335  and  _336
REMARK  139  A    between atoms: _339  and  _341
REMARK  140  A    between atoms: _341  and  _342
REMARK  141  A    between atoms: _341  and  _344
REMARK  142  A    between atoms: _344  and  _345
REMARK  143  A    between atoms: _345  and  _346
REMARK  144  A    between atoms: _349  and  _351
REMARK  145  A    between atoms: _351  and  _352
REMARK  146  A    between atoms: _351  and  _354
REMARK  147  A    between atoms: _354  and  _355
REMARK  148  A    between atoms: _358  and  _360
REMARK  149  A    between atoms: _360  and  _361
REMARK  150  A    between atoms: _360  and  _363
REMARK  151  A    between atoms: _363  and  _364
REMARK  152  A    between atoms: _367  and  _369
REMARK  153  A    between atoms: _369  and  _370
REMARK  154  A    between atoms: _369  and  _372
REMARK  155  A    between atoms: _372  and  _373
REMARK  156  A    between atoms: _373  and  _374
REMARK  157  A    between atoms: _374  and  _375
REMARK  158  A    between atoms: _384  and  _386
REMARK  159  A    between atoms: _386  and  _387
REMARK  160  A    between atoms: _386  and  _389
REMARK  161  A    between atoms: _389  and  _390
REMARK  162  A    between atoms: _393  and  _395
REMARK  163  A    between atoms: _395  and  _396
REMARK  164  A    between atoms: _400  and  _401
REMARK  165  A    between atoms: _406  and  _408
REMARK  166  A    between atoms: _408  and  _409
REMARK  167  A    between atoms: _408  and  _411
REMARK  168  A    between atoms: _411  and  _412
REMARK  169  A    between atoms: _418  and  _419
REMARK  170  A    between atoms: _424  and  _426
REMARK  171  A    between atoms: _426  and  _427
REMARK  172  A    between atoms: _426  and  _429
REMARK  173  A    between atoms: _429  and  _430
REMARK  174  A    between atoms: _433  and  _435
REMARK  175  A    between atoms: _435  and  _436
REMARK  176  A    between atoms: _435  and  _438
REMARK  177  A    between atoms: _438  and  _439
REMARK  178  A    between atoms: _442  and  _444
REMARK  179  A    between atoms: _444  and  _445
REMARK  180  A    between atoms: _444  and  _447
REMARK  181  A    between atoms: _447  and  _448
REMARK  182  A    between atoms: _448  and  _449
REMARK  183  A    between atoms: _451  and  _453
REMARK  184  A    between atoms: _453  and  _454
REMARK  185  A    between atoms: _453  and  _456
REMARK  186  A    between atoms: _456  and  _457
REMARK  187  A    between atoms: _457  and  _458
REMARK  188  A    between atoms: _461  and  _463
REMARK  189  A    between atoms: _463  and  _464
REMARK  190  A    between atoms: _463  and  _466
REMARK  191  A    between atoms: _466  and  _467
REMARK  192  A    between atoms: _470  and  _472
REMARK  193  A    between atoms: _472  and  _473
REMARK  194  A    between atoms: _472  and  _475
REMARK  195  A    between atoms: _478  and  _480
REMARK  196  A    between atoms: _480  and  _481
REMARK  197  A    between atoms: _480  and  _483
REMARK  198  A    between atoms: _483  and  _484
REMARK  199  A    between atoms: _490  and  _492
REMARK  200  A    between atoms: _492  and  _493
REMARK  201  A    between atoms: _492  and  _495
REMARK  202  A    between atoms: _495  and  _496
REMARK  203  A    between atoms: _496  and  _497
REMARK  204  A    between atoms: _500  and  _502
REMARK  205  A    between atoms: _502  and  _503
REMARK  206  A    between atoms: _502  and  _505
REMARK  207  A    between atoms: _505  and  _506
REMARK  208  A    between atoms: _511  and  _513
REMARK  209  A    between atoms: _513  and  _514
REMARK  210  A    between atoms: _513  and  _516
REMARK  211  A    between atoms: _516  and  _517
REMARK  212  A    between atoms: _517  and  _518
REMARK  213  A    between atoms: _518  and  _519
REMARK  214  A    between atoms: _528  and  _530
REMARK  215  A    between atoms: _530  and  _531
REMARK  216  A    between atoms: _530  and  _533
REMARK  217  A    between atoms: _533  and  _534
REMARK  218  A    between atoms: _537  and  _539
REMARK  219  A    between atoms: _539  and  _540
REMARK  220  A    between atoms: _539  and  _542
REMARK  221  A    between atoms: _542  and  _543
REMARK  222  A    between atoms: _546  and  _548
REMARK  223  A    between atoms: _548  and  _549
REMARK  224  A    between atoms: _548  and  _551
REMARK  225  A    between atoms: _551  and  _552
REMARK  226  A    between atoms: _552  and  _553
REMARK  227  A    between atoms: _553  and  _554
REMARK  228  A    between atoms: _563  and  _565
REMARK  229  A    between atoms: _565  and  _566
REMARK  230  A    between atoms: _569  and  _571
REMARK  231  A    between atoms: _571  and  _572
REMARK  232  A    between atoms: _571  and  _574
REMARK  233  A    between atoms: _574  and  _575
REMARK  234  A    between atoms: _575  and  _576
REMARK  235  A    between atoms: _576  and  _577
REMARK  236  A    between atoms: _586  and  _588
REMARK  237  A    between atoms: _588  and  _589
REMARK                            x       y       z     vdW  Elec       q    Type
REMARK                         _______ _______ _______ _____ _____    ______ ____
ROOT
ATOM      1  CA  ARG A   2       5.327   4.619  -5.595  0.00  0.00    +0.149 C 
ENDROOT
BRANCH   1   4
ATOM      2  C   ASP A   1       5.941   5.319  -3.315  0.00  0.00    +0.239 C 
ATOM      3  O   ASP A   1       5.747   6.514  -3.557  0.00  0.00    -0.274 OA
ATOM      4  N   ARG A   2       5.739   4.344  -4.210  0.00  0.00    -0.297 N 
ATOM      5  H   ARG A   2       5.878   3.356  -3.915  0.00  0.00    +0.150 HD
BRANCH   2   6
ATOM      6  CA  ASP A   1       6.438   4.887  -1.934  0.00  0.00    +0.156 C 
BRANCH   6   7
ATOM      7  N   ASP A   1       7.820   5.315  -1.709  0.00  0.00    -0.238 NA
ATOM      8  H   ASP A   1       7.989   6.206  -1.199  0.00  0.00    +0.142 HD
ENDBRANCH   6   7
BRANCH   6   9
ATOM      9  CB  ASP A   1       5.532   5.470  -0.843  0.00  0.00    +0.140 C 
BRANCH   9  10
ATOM     10  CG  ASP A   1       4.161   4.807  -0.791  0.00  0.00    +0.367 C 
ATOM     11  OD2 ASP A   1       3.733   4.411   0.326  0.00  0.00    -0.246 OA
ATOM     12  OD1 ASP A   1       3.506   4.702  -1.857  0.00  0.00    -0.246 OA
ENDBRANCH   9  10
ENDBRANCH   6   9
ENDBRANCH   2   6
ENDBRANCH   1   4
BRANCH   1  13
ATOM     13  C   ARG A   2       3.908   5.146  -5.657  0.00  0.00    +0.241 C 
ATOM     14  N   ILE A   3       3.067   4.705  -4.727  0.00  0.00    -0.298 N 
ATOM     15  H   ILE A   3       3.395   4.016  -4.020  0.00  0.00    +0.150 HD
ATOM     16  O   ARG A   2       3.582   5.943  -6.532  0.00  0.00    -0.273 OA
BRANCH  14  17
ATOM     17  CA  ILE A   3       1.683   5.180  -4.689  0.00  0.00    +0.137 C 
BRANCH  17  18
ATOM     18  CB  ILE A   3       0.772   4.316  -3.785  0.00  0.00    +0.026 C 
ATOM     19  CG2 ILE A   3      -0.686   4.794  -3.870  0.00  0.00    +0.002 C 
BRANCH  18  20
ATOM     20  CG1 ILE A   3       0.889   2.834  -4.164  0.00  0.00    +0.002 C 
ATOM     21  CD1 ILE A   3       0.597   2.524  -5.613  0.00  0.00    +0.000 C 
ENDBRANCH  18  20
ENDBRANCH  17  18
BRANCH  17  22
ATOM     22  C   ILE A   3       1.598   6.642  -4.259  0.00  0.00    +0.227 C 
ATOM     23  O   ILE A   3       0.821   7.408  -4.828  0.00  0.00    -0.286 OA
ENDBRANCH  17  22
ENDBRANCH  14  17
ENDBRANCH   1  13
BRANCH   1  24
ATOM     24  CB  ARG A   2       5.461   3.379  -6.490  0.00  0.00    +0.033 C 
BRANCH  24  25
ATOM     25  CG  ARG A   2       4.639   2.182  -6.052  0.00  0.00    +0.045 C 
BRANCH  25  26
ATOM     26  CD  ARG A   2       5.210   0.886  -6.565  0.00  0.00    +0.174 C 
BRANCH  26  27
ATOM     27  NE  ARG A   2       4.635  -0.248  -5.860  0.00  0.00    -0.265 N 
ATOM     28  HE  ARG A   2       5.085  -0.541  -4.969  0.00  0.00    +0.259 HD
ATOM     29  CZ  ARG A   2       3.577  -0.936  -6.272  0.00  0.00    +0.342 C 
ATOM     30  NH2 ARG A   2       3.119  -1.953  -5.539  0.00  0.00    -0.292 N 
ATOM     31 HH21 ARG A   2       3.591  -2.205  -4.647  0.00  0.00    +0.255 HD
ATOM     32 HH22 ARG A   2       2.290  -2.493  -5.860  0.00  0.00    +0.255 HD
ATOM     33  NH1 ARG A   2       2.985  -0.625  -7.420  0.00  0.00    -0.292 N 
ATOM     34 HH11 ARG A   2       2.156  -1.165  -7.741  0.00  0.00    +0.255 HD
ATOM     35 HH12 ARG A   2       3.350   0.159  -7.998  0.00  0.00    +0.255 HD
ENDBRANCH  26  27
ENDBRANCH  25  26
ENDBRANCH  24  25
ENDBRANCH   1  24
TORSDOF 14
REMARK  Name = ../refined-set-2016/3iss/3iss_pocket.pdb
REMARK  237 active torsions:
REMARK  status: ('A' for Active; 'I' for Inactive)
REMARK    1  A    between atoms: _1  and  _3
REMARK    2  A    between atoms: _3  and  _4
REMARK    3  A    between atoms: _3  and  _6
REMARK    4  A    between atoms: _6  and  _7
REMARK    5  A    between atoms: _7  and  _8
REMARK    6  A    between atoms: _8  and  _9
REMARK    7  A    between atoms: _9  and  _10
REMARK    8  A    between atoms: _14  and  _16
REMARK    9  A    between atoms: _16  and  _17
REMARK   10  A    between atoms: _16  and  _19
REMARK   11  A    between atoms: _19  and  _20
REMARK   12  A    between atoms: _25  and  _27
REMARK   13  A    between atoms: _27  and  _28
REMARK   14  A    between atoms: _31  and  _33
REMARK   15  A    between atoms: _33  and  _34
REMARK   16  A    between atoms: _33  and  _36
REMARK   17  A    between atoms: _36  and  _37
REMARK   18  A    between atoms: _41  and  _42
REMARK   19  A    between atoms: _47  and  _49
REMARK   20  A    between atoms: _49  and  _50
REMARK   21  A    between atoms: _49  and  _52
REMARK   22  A    between atoms: _52  and  _53
REMARK   23  A    between atoms: _56  and  _58
REMARK   24  A    between atoms: _58  and  _59
REMARK   25  A    between atoms: _58  and  _61
REMARK   26  A    between atoms: _61  and  _62
REMARK   27  A    between atoms: _62  and  _63
REMARK   28  A    between atoms: _65  and  _67
REMARK   29  A    between atoms: _67  and  _68
REMARK   30  A    between atoms: _67  and  _70
REMARK   31  A    between atoms: _70  and  _71
REMARK   32  A    between atoms: _71  and  _72
REMARK   33  A    between atoms: _72  and  _73
REMARK   34  A    between atoms: _82  and  _84
REMARK   35  A    between atoms: _84  and  _85
REMARK   36  A    between atoms: _88  and  _90
REMARK   37  A    between atoms: _90  and  _91
REMARK   38  A    between atoms: _90  and  _93
REMARK   39  A    between atoms: _93  and  _94
REMARK   40  A    between atoms: _96  and  _98
REMARK   41  A    between atoms: _98  and  _99
REMARK   42  A    between atoms: _98  and  _101
REMARK   43  A    between atoms: _101  and  _102
REMARK   44  A    between atoms: _105  and  _107
REMARK   45  A    between atoms: _107  and  _108
REMARK   46  A    between atoms: _107  and  _110
REMARK   47  A    between atoms: _110  and  _111
REMARK   48  A    between atoms: _121  and  _123
REMARK   49  A    between atoms: _123  and  _124
REMARK   50  A    between atoms: _123  and  _126
REMARK   51  A    between atoms: _128  and  _130
REMARK   52  A    between atoms: _130  and  _131
REMARK   53  A    between atoms: _130  and  _133
REMARK   54  A    between atoms: _133  and  _134
REMARK   55  A    between atoms: _137  and  _139
REMARK   56  A    between atoms: _139  and  _140
REMARK   57  A    between atoms: _142  and  _144
REMARK   58  A    between atoms: _144  and  _145
REMARK   59  A    between atoms: _148  and  _150
REMARK   60  A    between atoms: _150  and  _151
REMARK   61  A    between atoms: _150  and  _153
REMARK   62  A    between atoms: _153  and  _154
REMARK   63  A    between atoms: _154  and  _155
REMARK   64  A    between atoms: _155  and  _156
REMARK   65  A    between atoms: _166  and  _167
REMARK   66  A    between atoms: _172  and  _174
REMARK   67  A    between atoms: _174  and  _175
REMARK   68  A    between atoms: _174  and  _177
REMARK   69  A    between atoms: _180  and  _182
REMARK   70  A    between atoms: _182  and  _183
REMARK   71  A    between atoms: _182  and  _185
REMARK   72  A    between atoms: _185  and  _186
REMARK   73  A    between atoms: _189  and  _191
REMARK   74  A    between atoms: _191  and  _192
REMARK   75  A    between atoms: _191  and  _194
REMARK   76  A    between atoms: _194  and  _195
REMARK   77  A    between atoms: _198  and  _200
REMARK   78  A    between atoms: _200  and  _201
REMARK   79  A    between atoms: _200  and  _203
REMARK   80  A    between atoms: _203  and  _204
REMARK   81  A    between atoms: _209  and  _211
REMARK   82  A    between atoms: _211  and  _212
REMARK   83  A    between atoms: _211  and  _214
REMARK   84  A    between atoms: _214  and  _215
REMARK   85  A    between atoms: _218  and  _220
REMARK   86  A    between atoms: _220  and  _221
REMARK   87  A    between atoms: _220  and  _223
REMARK   88  A    between atoms: _223  and  _224
REMARK   89  A    between atoms: _226  and  _228
REMARK   90  A    between atoms: _228  and  _229
REMARK   91  A    between atoms: _231  and  _233
REMARK   92  A    between atoms: _233  and  _234
REMARK   93  A    between atoms: _233  and  _236
REMARK   94  A    between atoms: _236  and  _237
REMARK   95  A    between atoms: _237  and  _238
REMARK   96  A    between atoms: _240  and  _242
REMARK   97  A    between atoms: _242  and  _243
REMARK   98  A    between atoms: _242  and  _245
REMARK   99  A    between atoms: _245  and  _246
REMARK  100  A    between atoms: _249  and  _251
REMARK  101  A    between atoms: _251  and  _252
REMARK  102  A    between atoms: _251  and  _254
REMARK  103  A    between atoms: _254  and  _255
REMARK  104  A    between atoms: _255  and  _256
REMARK  105  A    between atoms: _256  and  _257
REMARK  106  A    between atoms: _257  and  _258
REMARK  107  A    between atoms: _262  and  _264
REMARK  108  A    between atoms: _264  and  _265
REMARK  109  A    between atoms: _264  and  _267
REMARK  110  A    between atoms: _270  and  _272
REMARK  111  A    between atoms: _272  and  _273
REMARK  112  A    between atoms: _272  and  _275
REMARK  113  A    between atoms: _275  and  _276
REMARK  114  A    between atoms: _278  and  _280
REMARK  115  A    between atoms: _280  and  _281
REMARK  116  A    between atoms: _280  and  _283
REMARK  117  A    between atoms: _286  and  _288
REMARK  118  A    between atoms: _288  and  _289
REMARK  119  A    between atoms: _291  and  _293
REMARK  120  A    between atoms: _293  and  _294
REMARK  121  A    between atoms: _297  and  _299
REMARK  122  A    between atoms: _299  and  _300
REMARK  123  A    between atoms: _299  and  _302
REMARK  124  A    between atoms: _302  and  _303
REMARK  125  A    between atoms: _306  and  _308
REMARK  126  A    between atoms: _308  and  _309
REMARK  127  A    between atoms: _308  and  _311
REMARK  128  A    between atoms: _314  and  _316
REMARK  129  A    between atoms: _316  and  _317
REMARK  130  A    between atoms: _316  and  _319
REMARK  131  A    between atoms: _319  and  _320
REMARK  132  A    between atoms: _323  and  _325
REMARK  133  A    between atoms: _325  and  _326
REMARK  134  A    between atoms: _329  and  _331
REMARK  135  A    between atoms: _331  and  _332
REMARK  136  A    between atoms: _331  and  _334
REMARK  137  A    between atoms: _334  and  _335
REMARK  138  A    between atoms: _335  and  _336
REMARK  139  A    between atoms: _339  and  _341
REMARK  140  A    between atoms: _341  and  _342
REMARK  141  A    between atoms: _341  and  _344
REMARK  142  A    between atoms: _344  and  _345
REMARK  143  A    between atoms: _345  and  _346
REMARK  144  A    between atoms: _349  and  _351
REMARK  145  A    between atoms: _351  and  _352
REMARK  146  A    between atoms: _351  and  _354
REMARK  147  A    between atoms: _354  and  _355
REMARK  148  A    between atoms: _358  and  _360
REMARK  149  A    between atoms: _360  and  _361
REMARK  150  A    between atoms: _360  and  _363
REMARK  151  A    between atoms: _363  and  _364
REMARK  152  A    between atoms: _367  and  _369
REMARK  153  A    between atoms: _369  and  _370
REMARK  154  A    between atoms: _369  and  _372
REMARK  155  A    between atoms: _372  and  _373
REMARK  156  A    between atoms: _373  and  _374
REMARK  157  A    between atoms: _374  and  _375
REMARK  158  A    between atoms: _384  and  _386
REMARK  159  A    between atoms: _386  and  _387
REMARK  160  A    between atoms: _386  and  _389
REMARK  161  A    between atoms: _389  and  _390
REMARK  162  A    between atoms: _393  and  _395
REMARK  163  A    between atoms: _395  and  _396
REMARK  164  A    between atoms: _400  and  _401
REMARK  165  A    between atoms: _406  and  _408
REMARK  166  A    between atoms: _408  and  _409
REMARK  167  A    between atoms: _408  and  _411
REMARK  168  A    between atoms: _411  and  _412
REMARK  169  A    between atoms: _418  and  _419
REMARK  170  A    between atoms: _424  and  _426
REMARK  171  A    between atoms: _426  and  _427
REMARK  172  A    between atoms: _426  and  _429
REMARK  173  A    between atoms: _429  and  _430
REMARK  174  A    between atoms: _433  and  _435
REMARK  175  A    between atoms: _435  and  _436
REMARK  176  A    between atoms: _435  and  _438
REMARK  177  A    between atoms: _438  and  _439
REMARK  178  A    between atoms: _442  and  _444
REMARK  179  A    between atoms: _444  and  _445
REMARK  180  A    between atoms: _444  and  _447
REMARK  181  A    between atoms: _447  and  _448
REMARK  182  A    between atoms: _448  and  _449
REMARK  183  A    between atoms: _451  and  _453
REMARK  184  A    between atoms: _453  and  _454
REMARK  185  A    between atoms: _453  and  _456
REMARK  186  A    between atoms: _456  and  _457
REMARK  187  A    between atoms: _457  and  _458
REMARK  188  A    between atoms: _461  and  _463
REMARK  189  A    between atoms: _463  and  _464
REMARK  190  A    between atoms: _463  and  _466
REMARK  191  A    between atoms: _466  and  _467
REMARK  192  A    between atoms: _470  and  _472
REMARK  193  A    between atoms: _472  and  _473
REMARK  194  A    between atoms: _472  and  _475
REMARK  195  A    between atoms: _478  and  _480
REMARK  196  A    between atoms: _480  and  _481
REMARK  197  A    between atoms: _480  and  _483
REMARK  198  A    between atoms: _483  and  _484
REMARK  199  A    between atoms: _490  and  _492
REMARK  200  A    between atoms: _492  and  _493
REMARK  201  A    between atoms: _492  and  _495
REMARK  202  A    between atoms: _495  and  _496
REMARK  203  A    between atoms: _496  and  _497
REMARK  204  A    between atoms: _500  and  _502
REMARK  205  A    between atoms: _502  and  _503
REMARK  206  A    between atoms: _502  and  _505
REMARK  207  A    between atoms: _505  and  _506
REMARK  208  A    between atoms: _511  and  _513
REMARK  209  A    between atoms: _513  and  _514
REMARK  210  A    between atoms: _513  and  _516
REMARK  211  A    between atoms: _516  and  _517
REMARK  212  A    between atoms: _517  and  _518
REMARK  213  A    between atoms: _518  and  _519
REMARK  214  A    between atoms: _528  and  _530
REMARK  215  A    between atoms: _530  and  _531
REMARK  216  A    between atoms: _530  and  _533
REMARK  217  A    between atoms: _533  and  _534
REMARK  218  A    between atoms: _537  and  _539
REMARK  219  A    between atoms: _539  and  _540
REMARK  220  A    between atoms: _539  and  _542
REMARK  221  A    between atoms: _542  and  _543
REMARK  222  A    between atoms: _546  and  _548
REMARK  223  A    between atoms: _548  and  _549
REMARK  224  A    between atoms: _548  and  _551
REMARK  225  A    between atoms: _551  and  _552
REMARK  226  A    between atoms: _552  and  _553
REMARK  227  A    between atoms: _553  and  _554
REMARK  228  A    between atoms: _563  and  _565
REMARK  229  A    between atoms: _565  and  _566
REMARK  230  A    between atoms: _569  and  _571
REMARK  231  A    between atoms: _571  and  _572
REMARK  232  A    between atoms: _571  and  _574
REMARK  233  A    between atoms: _574  and  _575
REMARK  234  A    between atoms: _575  and  _576
REMARK  235  A    between atoms: _576  and  _577
REMARK  236  A    between atoms: _586  and  _588
REMARK  237  A    between atoms: _588  and  _589
REMARK                            x       y       z     vdW  Elec       q    Type
REMARK                         _______ _______ _______ _____ _____    ______ ____
ROOT
ATOM      1  C   PRO A   2       0.759  -6.413 -11.452  0.00  0.00    +0.241 C 
ATOM      2  N   HIS A   3       1.686  -5.939 -10.622  0.00  0.00    -0.298 N 
ATOM      3  H   HIS A   3       1.522  -6.017  -9.598  0.00  0.00    +0.150 HD
ATOM      4  O   PRO A   2       0.836  -6.337 -12.689  0.00  0.00    -0.273 OA
ENDROOT
BRANCH   1   7
ATOM      5  C   ALA A   1      -2.132  -5.751 -11.968  0.00  0.00    +0.241 C 
ATOM      6  N   PRO A   2      -1.670  -6.955 -11.586  0.00  0.00    -0.272 N 
ATOM      7  CA  PRO A   2      -0.456  -7.043 -10.770  0.00  0.00    +0.152 C 
ATOM      8  CB  PRO A   2      -0.253  -8.535 -10.589  0.00  0.00    +0.031 C 
ATOM      9  CG  PRO A   2      -1.583  -9.134 -10.836  0.00  0.00    +0.024 C 
ATOM     10  CD  PRO A   2      -2.238  -8.275 -11.866  0.00  0.00    +0.094 C 
ATOM     11  O   ALA A   1      -1.596  -4.697 -11.640  0.00  0.00    -0.273 OA
BRANCH   5  12
ATOM     12  CA  ALA A   1      -3.374  -5.723 -12.837  0.00  0.00    +0.145 C 
ATOM     13  CB  ALA A   1      -3.059  -6.258 -14.233  0.00  0.00    +0.028 C 
BRANCH  12  14
ATOM     14  N   ALA A   1      -3.852  -4.359 -12.911  0.00  0.00    -0.238 NA
ATOM     15  H   ALA A   1      -3.248  -3.592 -12.551  0.00  0.00    +0.142 HD
ENDBRANCH  12  14
ENDBRANCH   5  12
ENDBRANCH   1   7
BRANCH   2  16
ATOM     16  CA  HIS A   3       2.918  -5.317 -11.082  0.00  0.00    +0.143 C 
BRANCH  16  17
ATOM     17  C   HIS A   3       3.638  -6.205 -12.128  0.00  0.00    +0.227 C 
ATOM     18  O   HIS A   3       3.695  -7.430 -11.978  0.00  0.00    -0.286 OA
ENDBRANCH  16  17
BRANCH  16  19
ATOM     19  CB  HIS A   3       3.814  -5.017  -9.875  0.00  0.00    +0.075 C 
BRANCH  19  20
ATOM     20  CG  HIS A   3       4.979  -4.149 -10.205  0.00  0.00    +0.082 A 
ATOM     21  ND1 HIS A   3       4.857  -2.790 -10.400  0.00  0.00    -0.227 NA
ATOM     22  CE1 HIS A   3       6.036  -2.286 -10.704  0.00  0.00    +0.199 A 
ATOM     23  NE2 HIS A   3       6.923  -3.271 -10.727  0.00  0.00    -0.221 NA
ATOM     24  CD2 HIS A   3       6.284  -4.446 -10.419  0.00  0.00    +0.115 A 
ENDBRANCH  19  20
ENDBRANCH  16  19
ENDBRANCH   2  16
TORSDOF 7
REMARK  Name = ../refined-set-2016/3iss/3iss_pocket.pdb
REMARK  237 active torsions:
REMARK  status: ('A' for Active; 'I' for Inactive)
REMARK    1  A    between atoms: _1  and  _3
REMARK    2  A    between atoms: _3  and  _4
REMARK    3  A    between atoms: _3  and  _6
REMARK    4  A    between atoms: _6  and  _7
REMARK    5  A    between atoms: _7  and  _8
REMARK    6  A    between atoms: _8  and  _9
REMARK    7  A    between atoms: _9  and  _10
REMARK    8  A    between atoms: _14  and  _16
REMARK    9  A    between atoms: _16  and  _17
REMARK   10  A    between atoms: _16  and  _19
REMARK   11  A    between atoms: _19  and  _20
REMARK   12  A    between atoms: _25  and  _27
REMARK   13  A    between atoms: _27  and  _28
REMARK   14  A    between atoms: _31  and  _33
REMARK   15  A    between atoms: _33  and  _34
REMARK   16  A    between atoms: _33  and  _36
REMARK   17  A    between atoms: _36  and  _37
REMARK   18  A    between atoms: _41  and  _42
REMARK   19  A    between atoms: _47  and  _49
REMARK   20  A    between atoms: _49  and  _50
REMARK   21  A    between atoms: _49  and  _52
REMARK   22  A    between atoms: _52  and  _53
REMARK   23  A    between atoms: _56  and  _58
REMARK   24  A    between atoms: _58  and  _59
REMARK   25  A    between atoms: _58  and  _61
REMARK   26  A    between atoms: _61  and  _62
REMARK   27  A    between atoms: _62  and  _63
REMARK   28  A    between atoms: _65  and  _67
REMARK   29  A    between atoms: _67  and  _68
REMARK   30  A    between atoms: _67  and  _70
REMARK   31  A    between atoms: _70  and  _71
REMARK   32  A    between atoms: _71  and  _72
REMARK   33  A    between atoms: _72  and  _73
REMARK   34  A    between atoms: _82  and  _84
REMARK   35  A    between atoms: _84  and  _85
REMARK   36  A    between atoms: _88  and  _90
REMARK   37  A    between atoms: _90  and  _91
REMARK   38  A    between atoms: _90  and  _93
REMARK   39  A    between atoms: _93  and  _94
REMARK   40  A    between atoms: _96  and  _98
REMARK   41  A    between atoms: _98  and  _99
REMARK   42  A    between atoms: _98  and  _101
REMARK   43  A    between atoms: _101  and  _102
REMARK   44  A    between atoms: _105  and  _107
REMARK   45  A    between atoms: _107  and  _108
REMARK   46  A    between atoms: _107  and  _110
REMARK   47  A    between atoms: _110  and  _111
REMARK   48  A    between atoms: _121  and  _123
REMARK   49  A    between atoms: _123  and  _124
REMARK   50  A    between atoms: _123  and  _126
REMARK   51  A    between atoms: _128  and  _130
REMARK   52  A    between atoms: _130  and  _131
REMARK   53  A    between atoms: _130  and  _133
REMARK   54  A    between atoms: _133  and  _134
REMARK   55  A    between atoms: _137  and  _139
REMARK   56  A    between atoms: _139  and  _140
REMARK   57  A    between atoms: _142  and  _144
REMARK   58  A    between atoms: _144  and  _145
REMARK   59  A    between atoms: _148  and  _150
REMARK   60  A    between atoms: _150  and  _151
REMARK   61  A    between atoms: _150  and  _153
REMARK   62  A    between atoms: _153  and  _154
REMARK   63  A    between atoms: _154  and  _155
REMARK   64  A    between atoms: _155  and  _156
REMARK   65  A    between atoms: _166  and  _167
REMARK   66  A    between atoms: _172  and  _174
REMARK   67  A    between atoms: _174  and  _175
REMARK   68  A    between atoms: _174  and  _177
REMARK   69  A    between atoms: _180  and  _182
REMARK   70  A    between atoms: _182  and  _183
REMARK   71  A    between atoms: _182  and  _185
REMARK   72  A    between atoms: _185  and  _186
REMARK   73  A    between atoms: _189  and  _191
REMARK   74  A    between atoms: _191  and  _192
REMARK   75  A    between atoms: _191  and  _194
REMARK   76  A    between atoms: _194  and  _195
REMARK   77  A    between atoms: _198  and  _200
REMARK   78  A    between atoms: _200  and  _201
REMARK   79  A    between atoms: _200  and  _203
REMARK   80  A    between atoms: _203  and  _204
REMARK   81  A    between atoms: _209  and  _211
REMARK   82  A    between atoms: _211  and  _212
REMARK   83  A    between atoms: _211  and  _214
REMARK   84  A    between atoms: _214  and  _215
REMARK   85  A    between atoms: _218  and  _220
REMARK   86  A    between atoms: _220  and  _221
REMARK   87  A    between atoms: _220  and  _223
REMARK   88  A    between atoms: _223  and  _224
REMARK   89  A    between atoms: _226  and  _228
REMARK   90  A    between atoms: _228  and  _229
REMARK   91  A    between atoms: _231  and  _233
REMARK   92  A    between atoms: _233  and  _234
REMARK   93  A    between atoms: _233  and  _236
REMARK   94  A    between atoms: _236  and  _237
REMARK   95  A    between atoms: _237  and  _238
REMARK   96  A    between atoms: _240  and  _242
REMARK   97  A    between atoms: _242  and  _243
REMARK   98  A    between atoms: _242  and  _245
REMARK   99  A    between atoms: _245  and  _246
REMARK  100  A    between atoms: _249  and  _251
REMARK  101  A    between atoms: _251  and  _252
REMARK  102  A    between atoms: _251  and  _254
REMARK  103  A    between atoms: _254  and  _255
REMARK  104  A    between atoms: _255  and  _256
REMARK  105  A    between atoms: _256  and  _257
REMARK  106  A    between atoms: _257  and  _258
REMARK  107  A    between atoms: _262  and  _264
REMARK  108  A    between atoms: _264  and  _265
REMARK  109  A    between atoms: _264  and  _267
REMARK  110  A    between atoms: _270  and  _272
REMARK  111  A    between atoms: _272  and  _273
REMARK  112  A    between atoms: _272  and  _275
REMARK  113  A    between atoms: _275  and  _276
REMARK  114  A    between atoms: _278  and  _280
REMARK  115  A    between atoms: _280  and  _281
REMARK  116  A    between atoms: _280  and  _283
REMARK  117  A    between atoms: _286  and  _288
REMARK  118  A    between atoms: _288  and  _289
REMARK  119  A    between atoms: _291  and  _293
REMARK  120  A    between atoms: _293  and  _294
REMARK  121  A    between atoms: _297  and  _299
REMARK  122  A    between atoms: _299  and  _300
REMARK  123  A    between atoms: _299  and  _302
REMARK  124  A    between atoms: _302  and  _303
REMARK  125  A    between atoms: _306  and  _308
REMARK  126  A    between atoms: _308  and  _309
REMARK  127  A    between atoms: _308  and  _311
REMARK  128  A    between atoms: _314  and  _316
REMARK  129  A    between atoms: _316  and  _317
REMARK  130  A    between atoms: _316  and  _319
REMARK  131  A    between atoms: _319  and  _320
REMARK  132  A    between atoms: _323  and  _325
REMARK  133  A    between atoms: _325  and  _326
REMARK  134  A    between atoms: _329  and  _331
REMARK  135  A    between atoms: _331  and  _332
REMARK  136  A    between atoms: _331  and  _334
REMARK  137  A    between atoms: _334  and  _335
REMARK  138  A    between atoms: _335  and  _336
REMARK  139  A    between atoms: _339  and  _341
REMARK  140  A    between atoms: _341  and  _342
REMARK  141  A    between atoms: _341  and  _344
REMARK  142  A    between atoms: _344  and  _345
REMARK  143  A    between atoms: _345  and  _346
REMARK  144  A    between atoms: _349  and  _351
REMARK  145  A    between atoms: _351  and  _352
REMARK  146  A    between atoms: _351  and  _354
REMARK  147  A    between atoms: _354  and  _355
REMARK  148  A    between atoms: _358  and  _360
REMARK  149  A    between atoms: _360  and  _361
REMARK  150  A    between atoms: _360  and  _363
REMARK  151  A    between atoms: _363  and  _364
REMARK  152  A    between atoms: _367  and  _369
REMARK  153  A    between atoms: _369  and  _370
REMARK  154  A    between atoms: _369  and  _372
REMARK  155  A    between atoms: _372  and  _373
REMARK  156  A    between atoms: _373  and  _374
REMARK  157  A    between atoms: _374  and  _375
REMARK  158  A    between atoms: _384  and  _386
REMARK  159  A    between atoms: _386  and  _387
REMARK  160  A    between atoms: _386  and  _389
REMARK  161  A    between atoms: _389  and  _390
REMARK  162  A    between atoms: _393  and  _395
REMARK  163  A    between atoms: _395  and  _396
REMARK  164  A    between atoms: _400  and  _401
REMARK  165  A    between atoms: _406  and  _408
REMARK  166  A    between atoms: _408  and  _409
REMARK  167  A    between atoms: _408  and  _411
REMARK  168  A    between atoms: _411  and  _412
REMARK  169  A    between atoms: _418  and  _419
REMARK  170  A    between atoms: _424  and  _426
REMARK  171  A    between atoms: _426  and  _427
REMARK  172  A    between atoms: _426  and  _429
REMARK  173  A    between atoms: _429  and  _430
REMARK  174  A    between atoms: _433  and  _435
REMARK  175  A    between atoms: _435  and  _436
REMARK  176  A    between atoms: _435  and  _438
REMARK  177  A    between atoms: _438  and  _439
REMARK  178  A    between atoms: _442  and  _444
REMARK  179  A    between atoms: _444  and  _445
REMARK  180  A    between atoms: _444  and  _447
REMARK  181  A    between atoms: _447  and  _448
REMARK  182  A    between atoms: _448  and  _449
REMARK  183  A    between atoms: _451  and  _453
REMARK  184  A    between atoms: _453  and  _454
REMARK  185  A    between atoms: _453  and  _456
REMARK  186  A    between atoms: _456  and  _457
REMARK  187  A    between atoms: _457  and  _458
REMARK  188  A    between atoms: _461  and  _463
REMARK  189  A    between atoms: _463  and  _464
REMARK  190  A    between atoms: _463  and  _466
REMARK  191  A    between atoms: _466  and  _467
REMARK  192  A    between atoms: _470  and  _472
REMARK  193  A    between atoms: _472  and  _473
REMARK  194  A    between atoms: _472  and  _475
REMARK  195  A    between atoms: _478  and  _480
REMARK  196  A    between atoms: _480  and  _481
REMARK  197  A    between atoms: _480  and  _483
REMARK  198  A    between atoms: _483  and  _484
REMARK  199  A    between atoms: _490  and  _492
REMARK  200  A    between atoms: _492  and  _493
REMARK  201  A    between atoms: _492  and  _495
REMARK  202  A    between atoms: _495  and  _496
REMARK  203  A    between atoms: _496  and  _497
REMARK  204  A    between atoms: _500  and  _502
REMARK  205  A    between atoms: _502  and  _503
REMARK  206  A    between atoms: _502  and  _505
REMARK  207  A    between atoms: _505  and  _506
REMARK  208  A    between atoms: _511  and  _513
REMARK  209  A    between atoms: _513  and  _514
REMARK  210  A    between atoms: _513  and  _516
REMARK  211  A    between atoms: _516  and  _517
REMARK  212  A    between atoms: _517  and  _518
REMARK  213  A    between atoms: _518  and  _519
REMARK  214  A    between atoms: _528  and  _530
REMARK  215  A    between atoms: _530  and  _531
REMARK  216  A    between atoms: _530  and  _533
REMARK  217  A    between atoms: _533  and  _534
REMARK  218  A    between atoms: _537  and  _539
REMARK  219  A    between atoms: _539  and  _540
REMARK  220  A    between atoms: _539  and  _542
REMARK  221  A    between atoms: _542  and  _543
REMARK  222  A    between atoms: _546  and  _548
REMARK  223  A    between atoms: _548  and  _549
REMARK  224  A    between atoms: _548  and  _551
REMARK  225  A    between atoms: _551  and  _552
REMARK  226  A    between atoms: _552  and  _553
REMARK  227  A    between atoms: _553  and  _554
REMARK  228  A    between atoms: _563  and  _565
REMARK  229  A    between atoms: _565  and  _566
REMARK  230  A    between atoms: _569  and  _571
REMARK  231  A    between atoms: _571  and  _572
REMARK  232  A    between atoms: _571  and  _574
REMARK  233  A    between atoms: _574  and  _575
REMARK  234  A    between atoms: _575  and  _576
REMARK  235  A    between atoms: _576  and  _577
REMARK  236  A    between atoms: _586  and  _588
REMARK  237  A    between atoms: _588  and  _589
REMARK                            x       y       z     vdW  Elec       q    Type
REMARK                         _______ _______ _______ _____ _____    ______ ____
ROOT
ATOM      1  C   THR A   2      -5.042   0.406  -7.341  0.00  0.00    +0.243 C 
ATOM      2  N   ASP A   3      -3.945   0.519  -6.601  0.00  0.00    -0.296 N 
ATOM      3  H   ASP A   3      -3.180  -0.176  -6.713  0.00  0.00    +0.150 HD
ATOM      4  O   THR A   2      -5.965   1.205  -7.257  0.00  0.00    -0.273 OA
ENDROOT
BRANCH   1   5
ATOM      5  CA  THR A   2      -5.104  -0.782  -8.337  0.00  0.00    +0.176 C 
BRANCH   5   7
ATOM      6  C   PRO A   1      -3.044  -0.225  -9.518  0.00  0.00    +0.239 C 
ATOM      7  N   THR A   2      -3.792  -1.124  -8.879  0.00  0.00    -0.295 N 
ATOM      8  H   THR A   2      -3.432  -2.093  -8.764  0.00  0.00    +0.150 HD
ATOM      9  O   PRO A   1      -3.418   0.931  -9.757  0.00  0.00    -0.274 OA
BRANCH   6  11
ATOM     10  N   PRO A   1      -1.286  -0.217 -11.291  0.00  0.00    -0.210 NA
ATOM     11  CA  PRO A   1      -1.648  -0.675  -9.941  0.00  0.00    +0.149 C 
ATOM     12  CB  PRO A   1      -0.620   0.020  -9.037  0.00  0.00    +0.028 C 
ATOM     13  CG  PRO A   1       0.106   1.022  -9.924  0.00  0.00    +0.021 C 
ATOM     14  CD  PRO A   1      -0.563   1.062 -11.257  0.00  0.00    +0.089 C 
ENDBRANCH   6  11
ENDBRANCH   5   7
BRANCH   5  15
ATOM     15  CB  THR A   2      -5.799  -2.024  -7.696  0.00  0.00    +0.137 C 
ATOM     16  CG2 THR A   2      -4.932  -2.641  -6.589  0.00  0.00    +0.034 C 
BRANCH  15  17
ATOM     17  OG1 THR A   2      -7.083  -1.647  -7.183  0.00  0.00    -0.382 OA
ATOM     18  HG1 THR A   2      -7.644  -1.301  -7.922  0.00  0.00    +0.210 HD
ENDBRANCH  15  17
ENDBRANCH   5  15
ENDBRANCH   1   5
BRANCH   2  19
ATOM     19  CA  ASP A   3      -3.794   1.599  -5.635  0.00  0.00    +0.160 C 
BRANCH  19  20
ATOM     20  C   ASP A   3      -3.704   2.975  -6.294  0.00  0.00    +0.241 C 
ATOM     21  O   ASP A   3      -3.663   3.985  -5.588  0.00  0.00    -0.273 OA
ATOM     22  N   MET A   4      -3.670   3.024  -7.629  0.00  0.00    -0.298 N 
ATOM     23  H   MET A   4      -3.668   2.138  -8.174  0.00  0.00    +0.150 HD
BRANCH  22  24
ATOM     24  CA  MET A   4      -3.635   4.304  -8.337  0.00  0.00    +0.138 C 
BRANCH  24  25
ATOM     25  C   MET A   4      -4.923   4.525  -9.116  0.00  0.00    +0.227 C 
ATOM     26  O   MET A   4      -5.083   5.548  -9.774  0.00  0.00    -0.286 OA
ENDBRANCH  24  25
BRANCH  24  27
ATOM     27  CB  MET A   4      -2.434   4.395  -9.284  0.00  0.00    +0.039 C 
BRANCH  27  28
ATOM     28  CG  MET A   4      -1.096   4.761  -8.623  0.00  0.00    +0.060 C 
BRANCH  28  29
ATOM     29  SD  MET A   4      -1.040   6.377  -7.787  0.00  0.00    -0.139 S 
ATOM     30  CE  MET A   4      -1.832   7.432  -8.988  0.00  0.00    +0.069 C 
ENDBRANCH  28  29
ENDBRANCH  27  28
ENDBRANCH  24  27
ENDBRANCH  22  24
ENDBRANCH  19  20
BRANCH  19  31
ATOM     31  CB  ASP A   3      -2.573   1.371  -4.738  0.00  0.00    +0.143 C 
BRANCH  31  32
ATOM     32  CG  ASP A   3      -2.838   0.355  -3.632  0.00  0.00    +0.367 C 
ATOM     33  OD2 ASP A   3      -1.859  -0.059  -2.977  0.00  0.00    -0.246 OA
ATOM     34  OD1 ASP A   3      -4.015  -0.025  -3.417  0.00  0.00    -0.246 OA
ENDBRANCH  31  32
ENDBRANCH  19  31
ENDBRANCH   2  19
TORSDOF 14
REMARK  Name = ../refined-set-2016/3iss/3iss_pocket.pdb
REMARK  237 active torsions:
REMARK  status: ('A' for Active; 'I' for Inactive)
REMARK    1  A    between atoms: _1  and  _3
REMARK    2  A    between atoms: _3  and  _4
REMARK    3  A    between atoms: _3  and  _6
REMARK    4  A    between atoms: _6  and  _7
REMARK    5  A    between atoms: _7  and  _8
REMARK    6  A    between atoms: _8  and  _9
REMARK    7  A    between atoms: _9  and  _10
REMARK    8  A    between atoms: _14  and  _16
REMARK    9  A    between atoms: _16  and  _17
REMARK   10  A    between atoms: _16  and  _19
REMARK   11  A    between atoms: _19  and  _20
REMARK   12  A    between atoms: _25  and  _27
REMARK   13  A    between atoms: _27  and  _28
REMARK   14  A    between atoms: _31  and  _33
REMARK   15  A    between atoms: _33  and  _34
REMARK   16  A    between atoms: _33  and  _36
REMARK   17  A    between atoms: _36  and  _37
REMARK   18  A    between atoms: _41  and  _42
REMARK   19  A    between atoms: _47  and  _49
REMARK   20  A    between atoms: _49  and  _50
REMARK   21  A    between atoms: _49  and  _52
REMARK   22  A    between atoms: _52  and  _53
REMARK   23  A    between atoms: _56  and  _58
REMARK   24  A    between atoms: _58  and  _59
REMARK   25  A    between atoms: _58  and  _61
REMARK   26  A    between atoms: _61  and  _62
REMARK   27  A    between atoms: _62  and  _63
REMARK   28  A    between atoms: _65  and  _67
REMARK   29  A    between atoms: _67  and  _68
REMARK   30  A    between atoms: _67  and  _70
REMARK   31  A    between atoms: _70  and  _71
REMARK   32  A    between atoms: _71  and  _72
REMARK   33  A    between atoms: _72  and  _73
REMARK   34  A    between atoms: _82  and  _84
REMARK   35  A    between atoms: _84  and  _85
REMARK   36  A    between atoms: _88  and  _90
REMARK   37  A    between atoms: _90  and  _91
REMARK   38  A    between atoms: _90  and  _93
REMARK   39  A    between atoms: _93  and  _94
REMARK   40  A    between atoms: _96  and  _98
REMARK   41  A    between atoms: _98  and  _99
REMARK   42  A    between atoms: _98  and  _101
REMARK   43  A    between atoms: _101  and  _102
REMARK   44  A    between atoms: _105  and  _107
REMARK   45  A    between atoms: _107  and  _108
REMARK   46  A    between atoms: _107  and  _110
REMARK   47  A    between atoms: _110  and  _111
REMARK   48  A    between atoms: _121  and  _123
REMARK   49  A    between atoms: _123  and  _124
REMARK   50  A    between atoms: _123  and  _126
REMARK   51  A    between atoms: _128  and  _130
REMARK   52  A    between atoms: _130  and  _131
REMARK   53  A    between atoms: _130  and  _133
REMARK   54  A    between atoms: _133  and  _134
REMARK   55  A    between atoms: _137  and  _139
REMARK   56  A    between atoms: _139  and  _140
REMARK   57  A    between atoms: _142  and  _144
REMARK   58  A    between atoms: _144  and  _145
REMARK   59  A    between atoms: _148  and  _150
REMARK   60  A    between atoms: _150  and  _151
REMARK   61  A    between atoms: _150  and  _153
REMARK   62  A    between atoms: _153  and  _154
REMARK   63  A    between atoms: _154  and  _155
REMARK   64  A    between atoms: _155  and  _156
REMARK   65  A    between atoms: _166  and  _167
REMARK   66  A    between atoms: _172  and  _174
REMARK   67  A    between atoms: _174  and  _175
REMARK   68  A    between atoms: _174  and  _177
REMARK   69  A    between atoms: _180  and  _182
REMARK   70  A    between atoms: _182  and  _183
REMARK   71  A    between atoms: _182  and  _185
REMARK   72  A    between atoms: _185  and  _186
REMARK   73  A    between atoms: _189  and  _191
REMARK   74  A    between atoms: _191  and  _192
REMARK   75  A    between atoms: _191  and  _194
REMARK   76  A    between atoms: _194  and  _195
REMARK   77  A    between atoms: _198  and  _200
REMARK   78  A    between atoms: _200  and  _201
REMARK   79  A    between atoms: _200  and  _203
REMARK   80  A    between atoms: _203  and  _204
REMARK   81  A    between atoms: _209  and  _211
REMARK   82  A    between atoms: _211  and  _212
REMARK   83  A    between atoms: _211  and  _214
REMARK   84  A    between atoms: _214  and  _215
REMARK   85  A    between atoms: _218  and  _220
REMARK   86  A    between atoms: _220  and  _221
REMARK   87  A    between atoms: _220  and  _223
REMARK   88  A    between atoms: _223  and  _224
REMARK   89  A    between atoms: _226  and  _228
REMARK   90  A    between atoms: _228  and  _229
REMARK   91  A    between atoms: _231  and  _233
REMARK   92  A    between atoms: _233  and  _234
REMARK   93  A    between atoms: _233  and  _236
REMARK   94  A    between atoms: _236  and  _237
REMARK   95  A    between atoms: _237  and  _238
REMARK   96  A    between atoms: _240  and  _242
REMARK   97  A    between atoms: _242  and  _243
REMARK   98  A    between atoms: _242  and  _245
REMARK   99  A    between atoms: _245  and  _246
REMARK  100  A    between atoms: _249  and  _251
REMARK  101  A    between atoms: _251  and  _252
REMARK  102  A    between atoms: _251  and  _254
REMARK  103  A    between atoms: _254  and  _255
REMARK  104  A    between atoms: _255  and  _256
REMARK  105  A    between atoms: _256  and  _257
REMARK  106  A    between atoms: _257  and  _258
REMARK  107  A    between atoms: _262  and  _264
REMARK  108  A    between atoms: _264  and  _265
REMARK  109  A    between atoms: _264  and  _267
REMARK  110  A    between atoms: _270  and  _272
REMARK  111  A    between atoms: _272  and  _273
REMARK  112  A    between atoms: _272  and  _275
REMARK  113  A    between atoms: _275  and  _276
REMARK  114  A    between atoms: _278  and  _280
REMARK  115  A    between atoms: _280  and  _281
REMARK  116  A    between atoms: _280  and  _283
REMARK  117  A    between atoms: _286  and  _288
REMARK  118  A    between atoms: _288  and  _289
REMARK  119  A    between atoms: _291  and  _293
REMARK  120  A    between atoms: _293  and  _294
REMARK  121  A    between atoms: _297  and  _299
REMARK  122  A    between atoms: _299  and  _300
REMARK  123  A    between atoms: _299  and  _302
REMARK  124  A    between atoms: _302  and  _303
REMARK  125  A    between atoms: _306  and  _308
REMARK  126  A    between atoms: _308  and  _309
REMARK  127  A    between atoms: _308  and  _311
REMARK  128  A    between atoms: _314  and  _316
REMARK  129  A    between atoms: _316  and  _317
REMARK  130  A    between atoms: _316  and  _319
REMARK  131  A    between atoms: _319  and  _320
REMARK  132  A    between atoms: _323  and  _325
REMARK  133  A    between atoms: _325  and  _326
REMARK  134  A    between atoms: _329  and  _331
REMARK  135  A    between atoms: _331  and  _332
REMARK  136  A    between atoms: _331  and  _334
REMARK  137  A    between atoms: _334  and  _335
REMARK  138  A    between atoms: _335  and  _336
REMARK  139  A    between atoms: _339  and  _341
REMARK  140  A    between atoms: _341  and  _342
REMARK  141  A    between atoms: _341  and  _344
REMARK  142  A    between atoms: _344  and  _345
REMARK  143  A    between atoms: _345  and  _346
REMARK  144  A    between atoms: _349  and  _351
REMARK  145  A    between atoms: _351  and  _352
REMARK  146  A    between atoms: _351  and  _354
REMARK  147  A    between atoms: _354  and  _355
REMARK  148  A    between atoms: _358  and  _360
REMARK  149  A    between atoms: _360  and  _361
REMARK  150  A    between atoms: _360  and  _363
REMARK  151  A    between atoms: _363  and  _364
REMARK  152  A    between atoms: _367  and  _369
REMARK  153  A    between atoms: _369  and  _370
REMARK  154  A    between atoms: _369  and  _372
REMARK  155  A    between atoms: _372  and  _373
REMARK  156  A    between atoms: _373  and  _374
REMARK  157  A    between atoms: _374  and  _375
REMARK  158  A    between atoms: _384  and  _386
REMARK  159  A    between atoms: _386  and  _387
REMARK  160  A    between atoms: _386  and  _389
REMARK  161  A    between atoms: _389  and  _390
REMARK  162  A    between atoms: _393  and  _395
REMARK  163  A    between atoms: _395  and  _396
REMARK  164  A    between atoms: _400  and  _401
REMARK  165  A    between atoms: _406  and  _408
REMARK  166  A    between atoms: _408  and  _409
REMARK  167  A    between atoms: _408  and  _411
REMARK  168  A    between atoms: _411  and  _412
REMARK  169  A    between atoms: _418  and  _419
REMARK  170  A    between atoms: _424  and  _426
REMARK  171  A    between atoms: _426  and  _427
REMARK  172  A    between atoms: _426  and  _429
REMARK  173  A    between atoms: _429  and  _430
REMARK  174  A    between atoms: _433  and  _435
REMARK  175  A    between atoms: _435  and  _436
REMARK  176  A    between atoms: _435  and  _438
REMARK  177  A    between atoms: _438  and  _439
REMARK  178  A    between atoms: _442  and  _444
REMARK  179  A    between atoms: _444  and  _445
REMARK  180  A    between atoms: _444  and  _447
REMARK  181  A    between atoms: _447  and  _448
REMARK  182  A    between atoms: _448  and  _449
REMARK  183  A    between atoms: _451  and  _453
REMARK  184  A    between atoms: _453  and  _454
REMARK  185  A    between atoms: _453  and  _456
REMARK  186  A    between atoms: _456  and  _457
REMARK  187  A    between atoms: _457  and  _458
REMARK  188  A    between atoms: _461  and  _463
REMARK  189  A    between atoms: _463  and  _464
REMARK  190  A    between atoms: _463  and  _466
REMARK  191  A    between atoms: _466  and  _467
REMARK  192  A    between atoms: _470  and  _472
REMARK  193  A    between atoms: _472  and  _473
REMARK  194  A    between atoms: _472  and  _475
REMARK  195  A    between atoms: _478  and  _480
REMARK  196  A    between atoms: _480  and  _481
REMARK  197  A    between atoms: _480  and  _483
REMARK  198  A    between atoms: _483  and  _484
REMARK  199  A    between atoms: _490  and  _492
REMARK  200  A    between atoms: _492  and  _493
REMARK  201  A    between atoms: _492  and  _495
REMARK  202  A    between atoms: _495  and  _496
REMARK  203  A    between atoms: _496  and  _497
REMARK  204  A    between atoms: _500  and  _502
REMARK  205  A    between atoms: _502  and  _503
REMARK  206  A    between atoms: _502  and  _505
REMARK  207  A    between atoms: _505  and  _506
REMARK  208  A    between atoms: _511  and  _513
REMARK  209  A    between atoms: _513  and  _514
REMARK  210  A    between atoms: _513  and  _516
REMARK  211  A    between atoms: _516  and  _517
REMARK  212  A    between atoms: _517  and  _518
REMARK  213  A    between atoms: _518  and  _519
REMARK  214  A    between atoms: _528  and  _530
REMARK  215  A    between atoms: _530  and  _531
REMARK  216  A    between atoms: _530  and  _533
REMARK  217  A    between atoms: _533  and  _534
REMARK  218  A    between atoms: _537  and  _539
REMARK  219  A    between atoms: _539  and  _540
REMARK  220  A    between atoms: _539  and  _542
REMARK  221  A    between atoms: _542  and  _543
REMARK  222  A    between atoms: _546  and  _548
REMARK  223  A    between atoms: _548  and  _549
REMARK  224  A    between atoms: _548  and  _551
REMARK  225  A    between atoms: _551  and  _552
REMARK  226  A    between atoms: _552  and  _553
REMARK  227  A    between atoms: _553  and  _554
REMARK  228  A    between atoms: _563  and  _565
REMARK  229  A    between atoms: _565  and  _566
REMARK  230  A    between atoms: _569  and  _571
REMARK  231  A    between atoms: _571  and  _572
REMARK  232  A    between atoms: _571  and  _574
REMARK  233  A    between atoms: _574  and  _575
REMARK  234  A    between atoms: _575  and  _576
REMARK  235  A    between atoms: _576  and  _577
REMARK  236  A    between atoms: _586  and  _588
REMARK  237  A    between atoms: _588  and  _589
REMARK                            x       y       z     vdW  Elec       q    Type
REMARK                         _______ _______ _______ _____ _____    ______ ____
ROOT
ATOM      1  C   PHE A   4     -11.685  -5.044  -7.388  0.00  0.00    +0.241 C 
ATOM      2  O   PHE A   4     -11.880  -3.842  -7.544  0.00  0.00    -0.273 OA
ATOM      3  N   GLU A   5     -12.542  -5.970  -7.799  0.00  0.00    -0.297 N 
ATOM      4  H   GLU A   5     -12.454  -6.942  -7.439  0.00  0.00    +0.150 HD
ENDROOT
BRANCH   3   5
ATOM      5  CA  GLU A   5     -13.603  -5.653  -8.744  0.00  0.00    +0.149 C 
BRANCH   5   6
ATOM      6  C   GLU A   5     -14.722  -4.739  -8.238  0.00  0.00    +0.241 C 
ATOM      7  N   ASN A   6     -14.756  -4.485  -6.930  0.00  0.00    -0.297 N 
ATOM      8  H   ASN A   6     -14.047  -4.928  -6.311  0.00  0.00    +0.150 HD
ATOM      9  O   GLU A   5     -15.523  -4.246  -9.037  0.00  0.00    -0.273 OA
BRANCH   7  10
ATOM     10  CA  ASN A   6     -15.768  -3.596  -6.336  0.00  0.00    +0.158 C 
BRANCH  10  11
ATOM     11  C   ASN A   6     -15.166  -2.333  -5.716  0.00  0.00    +0.241 C 
ATOM     12  O   ASN A   6     -15.720  -1.775  -4.771  0.00  0.00    -0.273 OA
ATOM     13  N   ARG A   7     -14.020  -1.897  -6.215  0.00  0.00    -0.298 N 
ATOM     14  H   ARG A   7     -13.616  -2.356  -7.056  0.00  0.00    +0.150 HD
BRANCH  13  15
ATOM     15  CA  ARG A   7     -13.322  -0.782  -5.596  0.00  0.00    +0.137 C 
BRANCH  15  16
ATOM     16  C   ARG A   7     -13.679   0.524  -6.296  0.00  0.00    +0.227 C 
ATOM     17  O   ARG A   7     -12.848   1.138  -6.943  0.00  0.00    -0.286 OA
ENDBRANCH  15  16
BRANCH  15  18
ATOM     18  CB  ARG A   7     -11.815  -1.032  -5.625  0.00  0.00    +0.031 C 
BRANCH  18  19
ATOM     19  CG  ARG A   7     -11.032  -0.251  -4.600  0.00  0.00    +0.045 C 
BRANCH  19  20
ATOM     20  CD  ARG A   7      -9.539  -0.318  -4.832  0.00  0.00    +0.174 C 
BRANCH  20  21
ATOM     21  NE  ARG A   7      -8.800   0.262  -3.715  0.00  0.00    -0.265 N 
ATOM     22  HE  ARG A   7      -9.342   0.748  -2.972  0.00  0.00    +0.259 HD
ATOM     23  CZ  ARG A   7      -7.474   0.209  -3.586  0.00  0.00    +0.342 C 
ATOM     24  NH2 ARG A   7      -6.872   0.767  -2.546  0.00  0.00    -0.292 N 
ATOM     25 HH21 ARG A   7      -7.434   1.253  -1.819  0.00  0.00    +0.255 HD
ATOM     26 HH22 ARG A   7      -5.837   0.719  -2.457  0.00  0.00    +0.255 HD
ATOM     27  NH1 ARG A   7      -6.735  -0.401  -4.499  0.00  0.00    -0.292 N 
ATOM     28 HH11 ARG A   7      -5.701  -0.438  -4.391  0.00  0.00    +0.255 HD
ATOM     29 HH12 ARG A   7      -7.188  -0.843  -5.324  0.00  0.00    +0.255 HD
ENDBRANCH  20  21
ENDBRANCH  19  20
ENDBRANCH  18  19
ENDBRANCH  15  18
ENDBRANCH  13  15
ENDBRANCH  10  11
BRANCH  10  30
ATOM     30  CB  ASN A   6     -16.551  -4.318  -5.231  0.00  0.00    +0.114 C 
BRANCH  30  31
ATOM     31  CG  ASN A   6     -16.963  -5.720  -5.618  0.00  0.00    +0.222 C 
ATOM     32  ND2 ASN A   6     -17.206  -6.567  -4.615  0.00  0.00    -0.329 N 
ATOM     33 HD21 ASN A   6     -17.093  -6.253  -3.630  0.00  0.00    +0.145 HD
ATOM     34 HD22 ASN A   6     -17.509  -7.541  -4.819  0.00  0.00    +0.145 HD
ATOM     35  OD1 ASN A   6     -17.081  -6.038  -6.799  0.00  0.00    -0.275 OA
ENDBRANCH  30  31
ENDBRANCH  10  30
ENDBRANCH   7  10
ENDBRANCH   5   6
BRANCH   5  36
ATOM     36  CB  GLU A   5     -14.136  -6.942  -9.360  0.00  0.00    +0.041 C 
BRANCH  36  37
ATOM     37  CG  GLU A   5     -13.055  -7.650 -10.191  0.00  0.00    +0.116 C 
BRANCH  37  38
ATOM     38  CD  GLU A   5     -13.508  -8.974 -10.805  0.00  0.00    +0.365 C 
ATOM     39  OE2 GLU A   5     -14.734  -9.268 -10.810  0.00  0.00    -0.246 OA
ATOM     40  OE1 GLU A   5     -12.620  -9.720 -11.283  0.00  0.00    -0.246 OA
ENDBRANCH  37  38
ENDBRANCH  36  37
ENDBRANCH   5  36
ENDBRANCH   3   5
BRANCH   1  41
ATOM     41  CA  PHE A   4     -10.434  -5.547  -6.669  0.00  0.00    +0.153 C 
BRANCH  41  44
ATOM     42  C   VAL A   3      -8.725  -6.841  -7.854  0.00  0.00    +0.241 C 
ATOM     43  O   VAL A   3      -8.952  -7.852  -7.181  0.00  0.00    -0.273 OA
ATOM     44  N   PHE A   4      -9.336  -5.681  -7.637  0.00  0.00    -0.297 N 
ATOM     45  H   PHE A   4      -9.028  -4.842  -8.169  0.00  0.00    +0.150 HD
BRANCH  42  46
ATOM     46  CA  VAL A   3      -7.694  -6.879  -8.983  0.00  0.00    +0.149 C 
BRANCH  46  48
ATOM     47  C   THR A   2      -8.667  -7.259 -11.156  0.00  0.00    +0.243 C 
ATOM     48  N   VAL A   3      -8.249  -6.400 -10.239  0.00  0.00    -0.297 N 
ATOM     49  H   VAL A   3      -8.318  -5.378 -10.418  0.00  0.00    +0.150 HD
ATOM     50  O   THR A   2      -8.632  -8.479 -10.992  0.00  0.00    -0.273 OA
BRANCH  47  51
ATOM     51  CA  THR A   2      -9.203  -6.675 -12.448  0.00  0.00    +0.176 C 
BRANCH  51  53
ATOM     52  C   GLU A   1     -10.363  -4.588 -12.399  0.00  0.00    +0.238 C 
ATOM     53  N   THR A   2      -9.202  -5.225 -12.409  0.00  0.00    -0.295 N 
ATOM     54  H   THR A   2      -8.307  -4.696 -12.389  0.00  0.00    +0.150 HD
ATOM     55  O   GLU A   1     -11.428  -5.190 -12.416  0.00  0.00    -0.274 OA
BRANCH  52  56
ATOM     56  CA  GLU A   1     -10.331  -3.069 -12.418  0.00  0.00    +0.145 C 
BRANCH  56  57
ATOM     57  N   GLU A   1     -11.015  -2.647 -13.627  0.00  0.00    -0.238 NA
ATOM     58  H   GLU A   1     -12.031  -2.839 -13.737  0.00  0.00    +0.142 HD
ENDBRANCH  56  57
BRANCH  56  59
ATOM     59  CB  GLU A   1     -11.019  -2.454 -11.185  0.00  0.00    +0.038 C 
BRANCH  59  60
ATOM     60  CG  GLU A   1     -10.608  -3.003  -9.822  0.00  0.00    +0.116 C 
BRANCH  60  61
ATOM     61  CD  GLU A   1      -9.246  -2.517  -9.350  0.00  0.00    +0.365 C 
ATOM     62  OE2 GLU A   1      -9.081  -1.318  -9.043  0.00  0.00    -0.246 OA
ATOM     63  OE1 GLU A   1      -8.323  -3.347  -9.266  0.00  0.00    -0.246 OA
ENDBRANCH  60  61
ENDBRANCH  59  60
ENDBRANCH  56  59
ENDBRANCH  52  56
ENDBRANCH  51  53
BRANCH  51  64
ATOM     64  CB  THR A   2      -8.392  -7.258 -13.628  0.00  0.00    +0.137 C 
ATOM     65  CG2 THR A   2      -8.696  -6.518 -14.913  0.00  0.00    +0.034 C 
BRANCH  64  66
ATOM     66  OG1 THR A   2      -6.996  -7.167 -13.335  0.00  0.00    -0.382 OA
ATOM     67  HG1 THR A   2      -6.749  -6.218 -13.201  0.00  0.00    +0.210 HD
ENDBRANCH  64  66
ENDBRANCH  51  64
ENDBRANCH  47  51
ENDBRANCH  46  48
BRANCH  46  68
ATOM     68  CB  VAL A   3      -6.418  -6.112  -8.591  0.00  0.00    +0.027 C 
ATOM     69  CG2 VAL A   3      -5.873  -6.593  -7.218  0.00  0.00    +0.002 C 
ATOM     70  CG1 VAL A   3      -5.380  -6.262  -9.692  0.00  0.00    +0.002 C 
ENDBRANCH  46  68
ENDBRANCH  42  46
ENDBRANCH  41  44
BRANCH  41  71
ATOM     71  CB  PHE A   4     -10.081  -4.572  -5.534  0.00  0.00    +0.055 C 
BRANCH  71  72
ATOM     72  CG  PHE A   4      -8.958  -5.027  -4.657  0.00  0.00    -0.020 A 
ATOM     73  CD2 PHE A   4      -9.073  -6.194  -3.916  0.00  0.00    -0.004 A 
ATOM     74  CE2 PHE A   4      -8.034  -6.620  -3.092  0.00  0.00    -0.000 A 
ATOM     75  CZ  PHE A   4      -6.871  -5.852  -2.971  0.00  0.00    -0.000 A 
ATOM     76  CE1 PHE A   4      -6.758  -4.667  -3.694  0.00  0.00    -0.000 A 
ATOM     77  CD1 PHE A   4      -7.797  -4.267  -4.541  0.00  0.00    -0.004 A 
ENDBRANCH  71  72
ENDBRANCH  41  71
ENDBRANCH   1  41
TORSDOF 31
REMARK  Name = ../refined-set-2016/3iss/3iss_pocket.pdb
REMARK  237 active torsions:
REMARK  status: ('A' for Active; 'I' for Inactive)
REMARK    1  A    between atoms: _1  and  _3
REMARK    2  A    between atoms: _3  and  _4
REMARK    3  A    between atoms: _3  and  _6
REMARK    4  A    between atoms: _6  and  _7
REMARK    5  A    between atoms: _7  and  _8
REMARK    6  A    between atoms: _8  and  _9
REMARK    7  A    between atoms: _9  and  _10
REMARK    8  A    between atoms: _14  and  _16
REMARK    9  A    between atoms: _16  and  _17
REMARK   10  A    between atoms: _16  and  _19
REMARK   11  A    between atoms: _19  and  _20
REMARK   12  A    between atoms: _25  and  _27
REMARK   13  A    between atoms: _27  and  _28
REMARK   14  A    between atoms: _31  and  _33
REMARK   15  A    between atoms: _33  and  _34
REMARK   16  A    between atoms: _33  and  _36
REMARK   17  A    between atoms: _36  and  _37
REMARK   18  A    between atoms: _41  and  _42
REMARK   19  A    between atoms: _47  and  _49
REMARK   20  A    between atoms: _49  and  _50
REMARK   21  A    between atoms: _49  and  _52
REMARK   22  A    between atoms: _52  and  _53
REMARK   23  A    between atoms: _56  and  _58
REMARK   24  A    between atoms: _58  and  _59
REMARK   25  A    between atoms: _58  and  _61
REMARK   26  A    between atoms: _61  and  _62
REMARK   27  A    between atoms: _62  and  _63
REMARK   28  A    between atoms: _65  and  _67
REMARK   29  A    between atoms: _67  and  _68
REMARK   30  A    between atoms: _67  and  _70
REMARK   31  A    between atoms: _70  and  _71
REMARK   32  A    between atoms: _71  and  _72
REMARK   33  A    between atoms: _72  and  _73
REMARK   34  A    between atoms: _82  and  _84
REMARK   35  A    between atoms: _84  and  _85
REMARK   36  A    between atoms: _88  and  _90
REMARK   37  A    between atoms: _90  and  _91
REMARK   38  A    between atoms: _90  and  _93
REMARK   39  A    between atoms: _93  and  _94
REMARK   40  A    between atoms: _96  and  _98
REMARK   41  A    between atoms: _98  and  _99
REMARK   42  A    between atoms: _98  and  _101
REMARK   43  A    between atoms: _101  and  _102
REMARK   44  A    between atoms: _105  and  _107
REMARK   45  A    between atoms: _107  and  _108
REMARK   46  A    between atoms: _107  and  _110
REMARK   47  A    between atoms: _110  and  _111
REMARK   48  A    between atoms: _121  and  _123
REMARK   49  A    between atoms: _123  and  _124
REMARK   50  A    between atoms: _123  and  _126
REMARK   51  A    between atoms: _128  and  _130
REMARK   52  A    between atoms: _130  and  _131
REMARK   53  A    between atoms: _130  and  _133
REMARK   54  A    between atoms: _133  and  _134
REMARK   55  A    between atoms: _137  and  _139
REMARK   56  A    between atoms: _139  and  _140
REMARK   57  A    between atoms: _142  and  _144
REMARK   58  A    between atoms: _144  and  _145
REMARK   59  A    between atoms: _148  and  _150
REMARK   60  A    between atoms: _150  and  _151
REMARK   61  A    between atoms: _150  and  _153
REMARK   62  A    between atoms: _153  and  _154
REMARK   63  A    between atoms: _154  and  _155
REMARK   64  A    between atoms: _155  and  _156
REMARK   65  A    between atoms: _166  and  _167
REMARK   66  A    between atoms: _172  and  _174
REMARK   67  A    between atoms: _174  and  _175
REMARK   68  A    between atoms: _174  and  _177
REMARK   69  A    between atoms: _180  and  _182
REMARK   70  A    between atoms: _182  and  _183
REMARK   71  A    between atoms: _182  and  _185
REMARK   72  A    between atoms: _185  and  _186
REMARK   73  A    between atoms: _189  and  _191
REMARK   74  A    between atoms: _191  and  _192
REMARK   75  A    between atoms: _191  and  _194
REMARK   76  A    between atoms: _194  and  _195
REMARK   77  A    between atoms: _198  and  _200
REMARK   78  A    between atoms: _200  and  _201
REMARK   79  A    between atoms: _200  and  _203
REMARK   80  A    between atoms: _203  and  _204
REMARK   81  A    between atoms: _209  and  _211
REMARK   82  A    between atoms: _211  and  _212
REMARK   83  A    between atoms: _211  and  _214
REMARK   84  A    between atoms: _214  and  _215
REMARK   85  A    between atoms: _218  and  _220
REMARK   86  A    between atoms: _220  and  _221
REMARK   87  A    between atoms: _220  and  _223
REMARK   88  A    between atoms: _223  and  _224
REMARK   89  A    between atoms: _226  and  _228
REMARK   90  A    between atoms: _228  and  _229
REMARK   91  A    between atoms: _231  and  _233
REMARK   92  A    between atoms: _233  and  _234
REMARK   93  A    between atoms: _233  and  _236
REMARK   94  A    between atoms: _236  and  _237
REMARK   95  A    between atoms: _237  and  _238
REMARK   96  A    between atoms: _240  and  _242
REMARK   97  A    between atoms: _242  and  _243
REMARK   98  A    between atoms: _242  and  _245
REMARK   99  A    between atoms: _245  and  _246
REMARK  100  A    between atoms: _249  and  _251
REMARK  101  A    between atoms: _251  and  _252
REMARK  102  A    between atoms: _251  and  _254
REMARK  103  A    between atoms: _254  and  _255
REMARK  104  A    between atoms: _255  and  _256
REMARK  105  A    between atoms: _256  and  _257
REMARK  106  A    between atoms: _257  and  _258
REMARK  107  A    between atoms: _262  and  _264
REMARK  108  A    between atoms: _264  and  _265
REMARK  109  A    between atoms: _264  and  _267
REMARK  110  A    between atoms: _270  and  _272
REMARK  111  A    between atoms: _272  and  _273
REMARK  112  A    between atoms: _272  and  _275
REMARK  113  A    between atoms: _275  and  _276
REMARK  114  A    between atoms: _278  and  _280
REMARK  115  A    between atoms: _280  and  _281
REMARK  116  A    between atoms: _280  and  _283
REMARK  117  A    between atoms: _286  and  _288
REMARK  118  A    between atoms: _288  and  _289
REMARK  119  A    between atoms: _291  and  _293
REMARK  120  A    between atoms: _293  and  _294
REMARK  121  A    between atoms: _297  and  _299
REMARK  122  A    between atoms: _299  and  _300
REMARK  123  A    between atoms: _299  and  _302
REMARK  124  A    between atoms: _302  and  _303
REMARK  125  A    between atoms: _306  and  _308
REMARK  126  A    between atoms: _308  and  _309
REMARK  127  A    between atoms: _308  and  _311
REMARK  128  A    between atoms: _314  and  _316
REMARK  129  A    between atoms: _316  and  _317
REMARK  130  A    between atoms: _316  and  _319
REMARK  131  A    between atoms: _319  and  _320
REMARK  132  A    between atoms: _323  and  _325
REMARK  133  A    between atoms: _325  and  _326
REMARK  134  A    between atoms: _329  and  _331
REMARK  135  A    between atoms: _331  and  _332
REMARK  136  A    between atoms: _331  and  _334
REMARK  137  A    between atoms: _334  and  _335
REMARK  138  A    between atoms: _335  and  _336
REMARK  139  A    between atoms: _339  and  _341
REMARK  140  A    between atoms: _341  and  _342
REMARK  141  A    between atoms: _341  and  _344
REMARK  142  A    between atoms: _344  and  _345
REMARK  143  A    between atoms: _345  and  _346
REMARK  144  A    between atoms: _349  and  _351
REMARK  145  A    between atoms: _351  and  _352
REMARK  146  A    between atoms: _351  and  _354
REMARK  147  A    between atoms: _354  and  _355
REMARK  148  A    between atoms: _358  and  _360
REMARK  149  A    between atoms: _360  and  _361
REMARK  150  A    between atoms: _360  and  _363
REMARK  151  A    between atoms: _363  and  _364
REMARK  152  A    between atoms: _367  and  _369
REMARK  153  A    between atoms: _369  and  _370
REMARK  154  A    between atoms: _369  and  _372
REMARK  155  A    between atoms: _372  and  _373
REMARK  156  A    between atoms: _373  and  _374
REMARK  157  A    between atoms: _374  and  _375
REMARK  158  A    between atoms: _384  and  _386
REMARK  159  A    between atoms: _386  and  _387
REMARK  160  A    between atoms: _386  and  _389
REMARK  161  A    between atoms: _389  and  _390
REMARK  162  A    between atoms: _393  and  _395
REMARK  163  A    between atoms: _395  and  _396
REMARK  164  A    between atoms: _400  and  _401
REMARK  165  A    between atoms: _406  and  _408
REMARK  166  A    between atoms: _408  and  _409
REMARK  167  A    between atoms: _408  and  _411
REMARK  168  A    between atoms: _411  and  _412
REMARK  169  A    between atoms: _418  and  _419
REMARK  170  A    between atoms: _424  and  _426
REMARK  171  A    between atoms: _426  and  _427
REMARK  172  A    between atoms: _426  and  _429
REMARK  173  A    between atoms: _429  and  _430
REMARK  174  A    between atoms: _433  and  _435
REMARK  175  A    between atoms: _435  and  _436
REMARK  176  A    between atoms: _435  and  _438
REMARK  177  A    between atoms: _438  and  _439
REMARK  178  A    between atoms: _442  and  _444
REMARK  179  A    between atoms: _444  and  _445
REMARK  180  A    between atoms: _444  and  _447
REMARK  181  A    between atoms: _447  and  _448
REMARK  182  A    between atoms: _448  and  _449
REMARK  183  A    between atoms: _451  and  _453
REMARK  184  A    between atoms: _453  and  _454
REMARK  185  A    between atoms: _453  and  _456
REMARK  186  A    between atoms: _456  and  _457
REMARK  187  A    between atoms: _457  and  _458
REMARK  188  A    between atoms: _461  and  _463
REMARK  189  A    between atoms: _463  and  _464
REMARK  190  A    between atoms: _463  and  _466
REMARK  191  A    between atoms: _466  and  _467
REMARK  192  A    between atoms: _470  and  _472
REMARK  193  A    between atoms: _472  and  _473
REMARK  194  A    between atoms: _472  and  _475
REMARK  195  A    between atoms: _478  and  _480
REMARK  196  A    between atoms: _480  and  _481
REMARK  197  A    between atoms: _480  and  _483
REMARK  198  A    between atoms: _483  and  _484
REMARK  199  A    between atoms: _490  and  _492
REMARK  200  A    between atoms: _492  and  _493
REMARK  201  A    between atoms: _492  and  _495
REMARK  202  A    between atoms: _495  and  _496
REMARK  203  A    between atoms: _496  and  _497
REMARK  204  A    between atoms: _500  and  _502
REMARK  205  A    between atoms: _502  and  _503
REMARK  206  A    between atoms: _502  and  _505
REMARK  207  A    between atoms: _505  and  _506
REMARK  208  A    between atoms: _511  and  _513
REMARK  209  A    between atoms: _513  and  _514
REMARK  210  A    between atoms: _513  and  _516
REMARK  211  A    between atoms: _516  and  _517
REMARK  212  A    between atoms: _517  and  _518
REMARK  213  A    between atoms: _518  and  _519
REMARK  214  A    between atoms: _528  and  _530
REMARK  215  A    between atoms: _530  and  _531
REMARK  216  A    between atoms: _530  and  _533
REMARK  217  A    between atoms: _533  and  _534
REMARK  218  A    between atoms: _537  and  _539
REMARK  219  A    between atoms: _539  and  _540
REMARK  220  A    between atoms: _539  and  _542
REMARK  221  A    between atoms: _542  and  _543
REMARK  222  A    between atoms: _546  and  _548
REMARK  223  A    between atoms: _548  and  _549
REMARK  224  A    between atoms: _548  and  _551
REMARK  225  A    between atoms: _551  and  _552
REMARK  226  A    between atoms: _552  and  _553
REMARK  227  A    between atoms: _553  and  _554
REMARK  228  A    between atoms: _563  and  _565
REMARK  229  A    between atoms: _565  and  _566
REMARK  230  A    between atoms: _569  and  _571
REMARK  231  A    between atoms: _571  and  _572
REMARK  232  A    between atoms: _571  and  _574
REMARK  233  A    between atoms: _574  and  _575
REMARK  234  A    between atoms: _575  and  _576
REMARK  235  A    between atoms: _576  and  _577
REMARK  236  A    between atoms: _586  and  _588
REMARK  237  A    between atoms: _588  and  _589
REMARK                            x       y       z     vdW  Elec       q    Type
REMARK                         _______ _______ _______ _____ _____    ______ ____
ROOT
ATOM      1  CA  ARG A   3      -5.498   4.859  -0.542  0.00  0.00    +0.149 C 
ENDROOT
BRANCH   1   4
ATOM      2  C   LEU A   2      -6.156   4.571   1.773  0.00  0.00    +0.241 C 
ATOM      3  O   LEU A   2      -5.445   5.496   2.104  0.00  0.00    -0.273 OA
ATOM      4  N   ARG A   3      -6.252   4.157   0.509  0.00  0.00    -0.297 N 
ATOM      5  H   ARG A   3      -6.855   3.345   0.268  0.00  0.00    +0.150 HD
BRANCH   2   6
ATOM      6  CA  LEU A   2      -6.933   3.813   2.823  0.00  0.00    +0.149 C 
BRANCH   6   8
ATOM      7  C   ASP A   1      -9.102   4.409   1.822  0.00  0.00    +0.239 C 
ATOM      8  N   LEU A   2      -8.348   3.636   2.575  0.00  0.00    -0.297 N 
ATOM      9  H   LEU A   2      -8.811   2.825   3.033  0.00  0.00    +0.150 HD
ATOM     10  O   ASP A   1      -8.740   5.452   1.372  0.00  0.00    -0.274 OA
BRANCH   7  11
ATOM     11  CA  ASP A   1     -10.483   3.847   1.567  0.00  0.00    +0.156 C 
BRANCH  11  12
ATOM     12  N   ASP A   1     -11.559   4.660   2.093  0.00  0.00    -0.238 NA
ATOM     13  H   ASP A   1     -11.566   5.679   1.885  0.00  0.00    +0.142 HD
ENDBRANCH  11  12
BRANCH  11  14
ATOM     14  CB  ASP A   1     -10.704   3.558   0.071  0.00  0.00    +0.140 C 
BRANCH  14  15
ATOM     15  CG  ASP A   1      -9.731   2.523  -0.504  0.00  0.00    +0.367 C 
ATOM     16  OD2 ASP A   1      -8.607   2.386  -0.029  0.00  0.00    -0.246 OA
ATOM     17  OD1 ASP A   1     -10.092   1.852  -1.464  0.00  0.00    -0.246 OA
ENDBRANCH  14  15
ENDBRANCH  11  14
ENDBRANCH   7  11
ENDBRANCH   6   8
BRANCH   6  18
ATOM     18  CB  LEU A   2      -6.325   2.441   2.972  0.00  0.00    +0.029 C 
BRANCH  18  19
ATOM     19  CG  LEU A   2      -5.252   2.331   4.005  0.00  0.00    +0.002 C 
ATOM     20  CD2 LEU A   2      -5.319   1.004   4.511  0.00  0.00    +0.000 C 
ATOM     21  CD1 LEU A   2      -3.979   2.534   3.344  0.00  0.00    +0.000 C 
ENDBRANCH  18  19
ENDBRANCH   6  18
ENDBRANCH   2   6
ENDBRANCH   1   4
BRANCH   1  22
ATOM     22  C   ARG A   3      -6.402   5.606  -1.496  0.00  0.00    +0.241 C 
ATOM     23  N   ALA A   4      -7.513   4.973  -1.852  0.00  0.00    -0.298 N 
ATOM     24  H   ALA A   4      -7.768   4.088  -1.368  0.00  0.00    +0.150 HD
ATOM     25  O   ARG A   3      -6.074   6.708  -1.931  0.00  0.00    -0.273 OA
BRANCH  23  26
ATOM     26  CA  ALA A   4      -8.387   5.483  -2.903  0.00  0.00    +0.137 C 
ATOM     27  CB  ALA A   4      -9.472   4.459  -3.235  0.00  0.00    +0.030 C 
BRANCH  26  28
ATOM     28  C   ALA A   4      -9.000   6.848  -2.561  0.00  0.00    +0.227 C 
ATOM     29  O   ALA A   4      -9.134   7.698  -3.431  0.00  0.00    -0.286 OA
ENDBRANCH  26  28
ENDBRANCH  23  26
ENDBRANCH   1  22
BRANCH   1  30
ATOM     30  CB  ARG A   3      -4.647   3.897  -1.388  0.00  0.00    +0.033 C 
BRANCH  30  31
ATOM     31  CG  ARG A   3      -3.530   3.197  -0.672  0.00  0.00    +0.045 C 
BRANCH  31  32
ATOM     32  CD  ARG A   3      -2.446   4.145  -0.198  0.00  0.00    +0.174 C 
BRANCH  32  33
ATOM     33  NE  ARG A   3      -1.202   3.389  -0.101  0.00  0.00    -0.265 N 
ATOM     34  CZ  ARG A   3      -0.036   3.895   0.255  0.00  0.00    +0.342 C 
ATOM     35  NH2 ARG A   3       0.078   5.177   0.557  0.00  0.00    -0.292 N 
ATOM     36 HH21 ARG A   3       1.001   5.565   0.836  0.00  0.00    +0.255 HD
ATOM     37 HH22 ARG A   3      -0.756   5.797   0.515  0.00  0.00    +0.255 HD
ATOM     38  NH1 ARG A   3       1.016   3.110   0.295  0.00  0.00    -0.292 N 
ATOM     39 HH11 ARG A   3       1.941   3.494   0.574  0.00  0.00    +0.255 HD
ATOM     40 HH12 ARG A   3       0.924   2.104   0.048  0.00  0.00    +0.255 HD
ATOM     41  HE  ARG A   3      -1.236   2.375  -0.330  0.00  0.00    +0.259 HD
ENDBRANCH  32  33
ENDBRANCH  31  32
ENDBRANCH  30  31
ENDBRANCH   1  30
TORSDOF 16
REMARK  Name = ../refined-set-2016/3iss/3iss_pocket.pdb
REMARK  237 active torsions:
REMARK  status: ('A' for Active; 'I' for Inactive)
REMARK    1  A    between atoms: _1  and  _3
REMARK    2  A    between atoms: _3  and  _4
REMARK    3  A    between atoms: _3  and  _6
REMARK    4  A    between atoms: _6  and  _7
REMARK    5  A    between atoms: _7  and  _8
REMARK    6  A    between atoms: _8  and  _9
REMARK    7  A    between atoms: _9  and  _10
REMARK    8  A    between atoms: _14  and  _16
REMARK    9  A    between atoms: _16  and  _17
REMARK   10  A    between atoms: _16  and  _19
REMARK   11  A    between atoms: _19  and  _20
REMARK   12  A    between atoms: _25  and  _27
REMARK   13  A    between atoms: _27  and  _28
REMARK   14  A    between atoms: _31  and  _33
REMARK   15  A    between atoms: _33  and  _34
REMARK   16  A    between atoms: _33  and  _36
REMARK   17  A    between atoms: _36  and  _37
REMARK   18  A    between atoms: _41  and  _42
REMARK   19  A    between atoms: _47  and  _49
REMARK   20  A    between atoms: _49  and  _50
REMARK   21  A    between atoms: _49  and  _52
REMARK   22  A    between atoms: _52  and  _53
REMARK   23  A    between atoms: _56  and  _58
REMARK   24  A    between atoms: _58  and  _59
REMARK   25  A    between atoms: _58  and  _61
REMARK   26  A    between atoms: _61  and  _62
REMARK   27  A    between atoms: _62  and  _63
REMARK   28  A    between atoms: _65  and  _67
REMARK   29  A    between atoms: _67  and  _68
REMARK   30  A    between atoms: _67  and  _70
REMARK   31  A    between atoms: _70  and  _71
REMARK   32  A    between atoms: _71  and  _72
REMARK   33  A    between atoms: _72  and  _73
REMARK   34  A    between atoms: _82  and  _84
REMARK   35  A    between atoms: _84  and  _85
REMARK   36  A    between atoms: _88  and  _90
REMARK   37  A    between atoms: _90  and  _91
REMARK   38  A    between atoms: _90  and  _93
REMARK   39  A    between atoms: _93  and  _94
REMARK   40  A    between atoms: _96  and  _98
REMARK   41  A    between atoms: _98  and  _99
REMARK   42  A    between atoms: _98  and  _101
REMARK   43  A    between atoms: _101  and  _102
REMARK   44  A    between atoms: _105  and  _107
REMARK   45  A    between atoms: _107  and  _108
REMARK   46  A    between atoms: _107  and  _110
REMARK   47  A    between atoms: _110  and  _111
REMARK   48  A    between atoms: _121  and  _123
REMARK   49  A    between atoms: _123  and  _124
REMARK   50  A    between atoms: _123  and  _126
REMARK   51  A    between atoms: _128  and  _130
REMARK   52  A    between atoms: _130  and  _131
REMARK   53  A    between atoms: _130  and  _133
REMARK   54  A    between atoms: _133  and  _134
REMARK   55  A    between atoms: _137  and  _139
REMARK   56  A    between atoms: _139  and  _140
REMARK   57  A    between atoms: _142  and  _144
REMARK   58  A    between atoms: _144  and  _145
REMARK   59  A    between atoms: _148  and  _150
REMARK   60  A    between atoms: _150  and  _151
REMARK   61  A    between atoms: _150  and  _153
REMARK   62  A    between atoms: _153  and  _154
REMARK   63  A    between atoms: _154  and  _155
REMARK   64  A    between atoms: _155  and  _156
REMARK   65  A    between atoms: _166  and  _167
REMARK   66  A    between atoms: _172  and  _174
REMARK   67  A    between atoms: _174  and  _175
REMARK   68  A    between atoms: _174  and  _177
REMARK   69  A    between atoms: _180  and  _182
REMARK   70  A    between atoms: _182  and  _183
REMARK   71  A    between atoms: _182  and  _185
REMARK   72  A    between atoms: _185  and  _186
REMARK   73  A    between atoms: _189  and  _191
REMARK   74  A    between atoms: _191  and  _192
REMARK   75  A    between atoms: _191  and  _194
REMARK   76  A    between atoms: _194  and  _195
REMARK   77  A    between atoms: _198  and  _200
REMARK   78  A    between atoms: _200  and  _201
REMARK   79  A    between atoms: _200  and  _203
REMARK   80  A    between atoms: _203  and  _204
REMARK   81  A    between atoms: _209  and  _211
REMARK   82  A    between atoms: _211  and  _212
REMARK   83  A    between atoms: _211  and  _214
REMARK   84  A    between atoms: _214  and  _215
REMARK   85  A    between atoms: _218  and  _220
REMARK   86  A    between atoms: _220  and  _221
REMARK   87  A    between atoms: _220  and  _223
REMARK   88  A    between atoms: _223  and  _224
REMARK   89  A    between atoms: _226  and  _228
REMARK   90  A    between atoms: _228  and  _229
REMARK   91  A    between atoms: _231  and  _233
REMARK   92  A    between atoms: _233  and  _234
REMARK   93  A    between atoms: _233  and  _236
REMARK   94  A    between atoms: _236  and  _237
REMARK   95  A    between atoms: _237  and  _238
REMARK   96  A    between atoms: _240  and  _242
REMARK   97  A    between atoms: _242  and  _243
REMARK   98  A    between atoms: _242  and  _245
REMARK   99  A    between atoms: _245  and  _246
REMARK  100  A    between atoms: _249  and  _251
REMARK  101  A    between atoms: _251  and  _252
REMARK  102  A    between atoms: _251  and  _254
REMARK  103  A    between atoms: _254  and  _255
REMARK  104  A    between atoms: _255  and  _256
REMARK  105  A    between atoms: _256  and  _257
REMARK  106  A    between atoms: _257  and  _258
REMARK  107  A    between atoms: _262  and  _264
REMARK  108  A    between atoms: _264  and  _265
REMARK  109  A    between atoms: _264  and  _267
REMARK  110  A    between atoms: _270  and  _272
REMARK  111  A    between atoms: _272  and  _273
REMARK  112  A    between atoms: _272  and  _275
REMARK  113  A    between atoms: _275  and  _276
REMARK  114  A    between atoms: _278  and  _280
REMARK  115  A    between atoms: _280  and  _281
REMARK  116  A    between atoms: _280  and  _283
REMARK  117  A    between atoms: _286  and  _288
REMARK  118  A    between atoms: _288  and  _289
REMARK  119  A    between atoms: _291  and  _293
REMARK  120  A    between atoms: _293  and  _294
REMARK  121  A    between atoms: _297  and  _299
REMARK  122  A    between atoms: _299  and  _300
REMARK  123  A    between atoms: _299  and  _302
REMARK  124  A    between atoms: _302  and  _303
REMARK  125  A    between atoms: _306  and  _308
REMARK  126  A    between atoms: _308  and  _309
REMARK  127  A    between atoms: _308  and  _311
REMARK  128  A    between atoms: _314  and  _316
REMARK  129  A    between atoms: _316  and  _317
REMARK  130  A    between atoms: _316  and  _319
REMARK  131  A    between atoms: _319  and  _320
REMARK  132  A    between atoms: _323  and  _325
REMARK  133  A    between atoms: _325  and  _326
REMARK  134  A    between atoms: _329  and  _331
REMARK  135  A    between atoms: _331  and  _332
REMARK  136  A    between atoms: _331  and  _334
REMARK  137  A    between atoms: _334  and  _335
REMARK  138  A    between atoms: _335  and  _336
REMARK  139  A    between atoms: _339  and  _341
REMARK  140  A    between atoms: _341  and  _342
REMARK  141  A    between atoms: _341  and  _344
REMARK  142  A    between atoms: _344  and  _345
REMARK  143  A    between atoms: _345  and  _346
REMARK  144  A    between atoms: _349  and  _351
REMARK  145  A    between atoms: _351  and  _352
REMARK  146  A    between atoms: _351  and  _354
REMARK  147  A    between atoms: _354  and  _355
REMARK  148  A    between atoms: _358  and  _360
REMARK  149  A    between atoms: _360  and  _361
REMARK  150  A    between atoms: _360  and  _363
REMARK  151  A    between atoms: _363  and  _364
REMARK  152  A    between atoms: _367  and  _369
REMARK  153  A    between atoms: _369  and  _370
REMARK  154  A    between atoms: _369  and  _372
REMARK  155  A    between atoms: _372  and  _373
REMARK  156  A    between atoms: _373  and  _374
REMARK  157  A    between atoms: _374  and  _375
REMARK  158  A    between atoms: _384  and  _386
REMARK  159  A    between atoms: _386  and  _387
REMARK  160  A    between atoms: _386  and  _389
REMARK  161  A    between atoms: _389  and  _390
REMARK  162  A    between atoms: _393  and  _395
REMARK  163  A    between atoms: _395  and  _396
REMARK  164  A    between atoms: _400  and  _401
REMARK  165  A    between atoms: _406  and  _408
REMARK  166  A    between atoms: _408  and  _409
REMARK  167  A    between atoms: _408  and  _411
REMARK  168  A    between atoms: _411  and  _412
REMARK  169  A    between atoms: _418  and  _419
REMARK  170  A    between atoms: _424  and  _426
REMARK  171  A    between atoms: _426  and  _427
REMARK  172  A    between atoms: _426  and  _429
REMARK  173  A    between atoms: _429  and  _430
REMARK  174  A    between atoms: _433  and  _435
REMARK  175  A    between atoms: _435  and  _436
REMARK  176  A    between atoms: _435  and  _438
REMARK  177  A    between atoms: _438  and  _439
REMARK  178  A    between atoms: _442  and  _444
REMARK  179  A    between atoms: _444  and  _445
REMARK  180  A    between atoms: _444  and  _447
REMARK  181  A    between atoms: _447  and  _448
REMARK  182  A    between atoms: _448  and  _449
REMARK  183  A    between atoms: _451  and  _453
REMARK  184  A    between atoms: _453  and  _454
REMARK  185  A    between atoms: _453  and  _456
REMARK  186  A    between atoms: _456  and  _457
REMARK  187  A    between atoms: _457  and  _458
REMARK  188  A    between atoms: _461  and  _463
REMARK  189  A    between atoms: _463  and  _464
REMARK  190  A    between atoms: _463  and  _466
REMARK  191  A    between atoms: _466  and  _467
REMARK  192  A    between atoms: _470  and  _472
REMARK  193  A    between atoms: _472  and  _473
REMARK  194  A    between atoms: _472  and  _475
REMARK  195  A    between atoms: _478  and  _480
REMARK  196  A    between atoms: _480  and  _481
REMARK  197  A    between atoms: _480  and  _483
REMARK  198  A    between atoms: _483  and  _484
REMARK  199  A    between atoms: _490  and  _492
REMARK  200  A    between atoms: _492  and  _493
REMARK  201  A    between atoms: _492  and  _495
REMARK  202  A    between atoms: _495  and  _496
REMARK  203  A    between atoms: _496  and  _497
REMARK  204  A    between atoms: _500  and  _502
REMARK  205  A    between atoms: _502  and  _503
REMARK  206  A    between atoms: _502  and  _505
REMARK  207  A    between atoms: _505  and  _506
REMARK  208  A    between atoms: _511  and  _513
REMARK  209  A    between atoms: _513  and  _514
REMARK  210  A    between atoms: _513  and  _516
REMARK  211  A    between atoms: _516  and  _517
REMARK  212  A    between atoms: _517  and  _518
REMARK  213  A    between atoms: _518  and  _519
REMARK  214  A    between atoms: _528  and  _530
REMARK  215  A    between atoms: _530  and  _531
REMARK  216  A    between atoms: _530  and  _533
REMARK  217  A    between atoms: _533  and  _534
REMARK  218  A    between atoms: _537  and  _539
REMARK  219  A    between atoms: _539  and  _540
REMARK  220  A    between atoms: _539  and  _542
REMARK  221  A    between atoms: _542  and  _543
REMARK  222  A    between atoms: _546  and  _548
REMARK  223  A    between atoms: _548  and  _549
REMARK  224  A    between atoms: _548  and  _551
REMARK  225  A    between atoms: _551  and  _552
REMARK  226  A    between atoms: _552  and  _553
REMARK  227  A    between atoms: _553  and  _554
REMARK  228  A    between atoms: _563  and  _565
REMARK  229  A    between atoms: _565  and  _566
REMARK  230  A    between atoms: _569  and  _571
REMARK  231  A    between atoms: _571  and  _572
REMARK  232  A    between atoms: _571  and  _574
REMARK  233  A    between atoms: _574  and  _575
REMARK  234  A    between atoms: _575  and  _576
REMARK  235  A    between atoms: _576  and  _577
REMARK  236  A    between atoms: _586  and  _588
REMARK  237  A    between atoms: _588  and  _589
REMARK                            x       y       z     vdW  Elec       q    Type
REMARK                         _______ _______ _______ _____ _____    ______ ____
ROOT
ATOM      1  CB  ARG A   1      -4.617   3.978   7.580  0.00  0.00    +0.030 C 
ENDROOT
BRANCH   1   2
ATOM      2  CA  ARG A   1      -3.586   5.091   7.720  0.00  0.00    +0.145 C 
BRANCH   2   3
ATOM      3  C   ARG A   1      -2.616   4.979   6.542  0.00  0.00    +0.238 C 
ATOM      4  O   ARG A   1      -1.657   4.218   6.609  0.00  0.00    -0.274 OA
ATOM      5  N   GLY A   2      -2.879   5.740   5.476  0.00  0.00    -0.297 N 
ATOM      6  H   GLY A   2      -3.559   6.520   5.576  0.00  0.00    +0.150 HD
BRANCH   5   7
ATOM      7  CA  GLY A   2      -2.253   5.523   4.180  0.00  0.00    +0.163 C 
BRANCH   7   8
ATOM      8  C   GLY A   2      -1.222   6.531   3.720  0.00  0.00    +0.229 C 
ATOM      9  O   GLY A   2      -0.333   6.189   2.943  0.00  0.00    -0.286 OA
ENDBRANCH   7   8
ENDBRANCH   5   7
ENDBRANCH   2   3
BRANCH   2  10
ATOM     10  N   ARG A   1      -4.226   6.403   7.774  0.00  0.00    -0.238 NA
ATOM     11  H   ARG A   1      -5.243   6.487   7.573  0.00  0.00    +0.142 HD
ENDBRANCH   2  10
ENDBRANCH   1   2
BRANCH   1  12
ATOM     12  CG  ARG A   1      -5.528   3.751   8.744  0.00  0.00    +0.045 C 
BRANCH  12  13
ATOM     13  CD  ARG A   1      -6.528   2.661   8.404  0.00  0.00    +0.174 C 
BRANCH  13  14
ATOM     14  NE  ARG A   1      -5.882   1.401   8.064  0.00  0.00    -0.265 N 
ATOM     15  HE  ARG A   1      -4.858   1.316   8.225  0.00  0.00    +0.259 HD
ATOM     16  CZ  ARG A   1      -6.527   0.353   7.559  0.00  0.00    +0.342 C 
ATOM     17  NH2 ARG A   1      -7.831   0.447   7.323  0.00  0.00    -0.292 N 
ATOM     18 HH21 ARG A   1      -8.335   1.332   7.533  0.00  0.00    +0.255 HD
ATOM     19 HH22 ARG A   1      -8.348  -0.365   6.928  0.00  0.00    +0.255 HD
ATOM     20  NH1 ARG A   1      -5.879  -0.781   7.280  0.00  0.00    -0.292 N 
ATOM     21 HH11 ARG A   1      -4.857  -0.853   7.457  0.00  0.00    +0.255 HD
ATOM     22 HH12 ARG A   1      -6.397  -1.592   6.885  0.00  0.00    +0.255 HD
ENDBRANCH  13  14
ENDBRANCH  12  13
ENDBRANCH   1  12
TORSDOF 8
REMARK  Name = ../refined-set-2016/3iss/3iss_pocket.pdb
REMARK  237 active torsions:
REMARK  status: ('A' for Active; 'I' for Inactive)
REMARK    1  A    between atoms: _1  and  _3
REMARK    2  A    between atoms: _3  and  _4
REMARK    3  A    between atoms: _3  and  _6
REMARK    4  A    between atoms: _6  and  _7
REMARK    5  A    between atoms: _7  and  _8
REMARK    6  A    between atoms: _8  and  _9
REMARK    7  A    between atoms: _9  and  _10
REMARK    8  A    between atoms: _14  and  _16
REMARK    9  A    between atoms: _16  and  _17
REMARK   10  A    between atoms: _16  and  _19
REMARK   11  A    between atoms: _19  and  _20
REMARK   12  A    between atoms: _25  and  _27
REMARK   13  A    between atoms: _27  and  _28
REMARK   14  A    between atoms: _31  and  _33
REMARK   15  A    between atoms: _33  and  _34
REMARK   16  A    between atoms: _33  and  _36
REMARK   17  A    between atoms: _36  and  _37
REMARK   18  A    between atoms: _41  and  _42
REMARK   19  A    between atoms: _47  and  _49
REMARK   20  A    between atoms: _49  and  _50
REMARK   21  A    between atoms: _49  and  _52
REMARK   22  A    between atoms: _52  and  _53
REMARK   23  A    between atoms: _56  and  _58
REMARK   24  A    between atoms: _58  and  _59
REMARK   25  A    between atoms: _58  and  _61
REMARK   26  A    between atoms: _61  and  _62
REMARK   27  A    between atoms: _62  and  _63
REMARK   28  A    between atoms: _65  and  _67
REMARK   29  A    between atoms: _67  and  _68
REMARK   30  A    between atoms: _67  and  _70
REMARK   31  A    between atoms: _70  and  _71
REMARK   32  A    between atoms: _71  and  _72
REMARK   33  A    between atoms: _72  and  _73
REMARK   34  A    between atoms: _82  and  _84
REMARK   35  A    between atoms: _84  and  _85
REMARK   36  A    between atoms: _88  and  _90
REMARK   37  A    between atoms: _90  and  _91
REMARK   38  A    between atoms: _90  and  _93
REMARK   39  A    between atoms: _93  and  _94
REMARK   40  A    between atoms: _96  and  _98
REMARK   41  A    between atoms: _98  and  _99
REMARK   42  A    between atoms: _98  and  _101
REMARK   43  A    between atoms: _101  and  _102
REMARK   44  A    between atoms: _105  and  _107
REMARK   45  A    between atoms: _107  and  _108
REMARK   46  A    between atoms: _107  and  _110
REMARK   47  A    between atoms: _110  and  _111
REMARK   48  A    between atoms: _121  and  _123
REMARK   49  A    between atoms: _123  and  _124
REMARK   50  A    between atoms: _123  and  _126
REMARK   51  A    between atoms: _128  and  _130
REMARK   52  A    between atoms: _130  and  _131
REMARK   53  A    between atoms: _130  and  _133
REMARK   54  A    between atoms: _133  and  _134
REMARK   55  A    between atoms: _137  and  _139
REMARK   56  A    between atoms: _139  and  _140
REMARK   57  A    between atoms: _142  and  _144
REMARK   58  A    between atoms: _144  and  _145
REMARK   59  A    between atoms: _148  and  _150
REMARK   60  A    between atoms: _150  and  _151
REMARK   61  A    between atoms: _150  and  _153
REMARK   62  A    between atoms: _153  and  _154
REMARK   63  A    between atoms: _154  and  _155
REMARK   64  A    between atoms: _155  and  _156
REMARK   65  A    between atoms: _166  and  _167
REMARK   66  A    between atoms: _172  and  _174
REMARK   67  A    between atoms: _174  and  _175
REMARK   68  A    between atoms: _174  and  _177
REMARK   69  A    between atoms: _180  and  _182
REMARK   70  A    between atoms: _182  and  _183
REMARK   71  A    between atoms: _182  and  _185
REMARK   72  A    between atoms: _185  and  _186
REMARK   73  A    between atoms: _189  and  _191
REMARK   74  A    between atoms: _191  and  _192
REMARK   75  A    between atoms: _191  and  _194
REMARK   76  A    between atoms: _194  and  _195
REMARK   77  A    between atoms: _198  and  _200
REMARK   78  A    between atoms: _200  and  _201
REMARK   79  A    between atoms: _200  and  _203
REMARK   80  A    between atoms: _203  and  _204
REMARK   81  A    between atoms: _209  and  _211
REMARK   82  A    between atoms: _211  and  _212
REMARK   83  A    between atoms: _211  and  _214
REMARK   84  A    between atoms: _214  and  _215
REMARK   85  A    between atoms: _218  and  _220
REMARK   86  A    between atoms: _220  and  _221
REMARK   87  A    between atoms: _220  and  _223
REMARK   88  A    between atoms: _223  and  _224
REMARK   89  A    between atoms: _226  and  _228
REMARK   90  A    between atoms: _228  and  _229
REMARK   91  A    between atoms: _231  and  _233
REMARK   92  A    between atoms: _233  and  _234
REMARK   93  A    between atoms: _233  and  _236
REMARK   94  A    between atoms: _236  and  _237
REMARK   95  A    between atoms: _237  and  _238
REMARK   96  A    between atoms: _240  and  _242
REMARK   97  A    between atoms: _242  and  _243
REMARK   98  A    between atoms: _242  and  _245
REMARK   99  A    between atoms: _245  and  _246
REMARK  100  A    between atoms: _249  and  _251
REMARK  101  A    between atoms: _251  and  _252
REMARK  102  A    between atoms: _251  and  _254
REMARK  103  A    between atoms: _254  and  _255
REMARK  104  A    between atoms: _255  and  _256
REMARK  105  A    between atoms: _256  and  _257
REMARK  106  A    between atoms: _257  and  _258
REMARK  107  A    between atoms: _262  and  _264
REMARK  108  A    between atoms: _264  and  _265
REMARK  109  A    between atoms: _264  and  _267
REMARK  110  A    between atoms: _270  and  _272
REMARK  111  A    between atoms: _272  and  _273
REMARK  112  A    between atoms: _272  and  _275
REMARK  113  A    between atoms: _275  and  _276
REMARK  114  A    between atoms: _278  and  _280
REMARK  115  A    between atoms: _280  and  _281
REMARK  116  A    between atoms: _280  and  _283
REMARK  117  A    between atoms: _286  and  _288
REMARK  118  A    between atoms: _288  and  _289
REMARK  119  A    between atoms: _291  and  _293
REMARK  120  A    between atoms: _293  and  _294
REMARK  121  A    between atoms: _297  and  _299
REMARK  122  A    between atoms: _299  and  _300
REMARK  123  A    between atoms: _299  and  _302
REMARK  124  A    between atoms: _302  and  _303
REMARK  125  A    between atoms: _306  and  _308
REMARK  126  A    between atoms: _308  and  _309
REMARK  127  A    between atoms: _308  and  _311
REMARK  128  A    between atoms: _314  and  _316
REMARK  129  A    between atoms: _316  and  _317
REMARK  130  A    between atoms: _316  and  _319
REMARK  131  A    between atoms: _319  and  _320
REMARK  132  A    between atoms: _323  and  _325
REMARK  133  A    between atoms: _325  and  _326
REMARK  134  A    between atoms: _329  and  _331
REMARK  135  A    between atoms: _331  and  _332
REMARK  136  A    between atoms: _331  and  _334
REMARK  137  A    between atoms: _334  and  _335
REMARK  138  A    between atoms: _335  and  _336
REMARK  139  A    between atoms: _339  and  _341
REMARK  140  A    between atoms: _341  and  _342
REMARK  141  A    between atoms: _341  and  _344
REMARK  142  A    between atoms: _344  and  _345
REMARK  143  A    between atoms: _345  and  _346
REMARK  144  A    between atoms: _349  and  _351
REMARK  145  A    between atoms: _351  and  _352
REMARK  146  A    between atoms: _351  and  _354
REMARK  147  A    between atoms: _354  and  _355
REMARK  148  A    between atoms: _358  and  _360
REMARK  149  A    between atoms: _360  and  _361
REMARK  150  A    between atoms: _360  and  _363
REMARK  151  A    between atoms: _363  and  _364
REMARK  152  A    between atoms: _367  and  _369
REMARK  153  A    between atoms: _369  and  _370
REMARK  154  A    between atoms: _369  and  _372
REMARK  155  A    between atoms: _372  and  _373
REMARK  156  A    between atoms: _373  and  _374
REMARK  157  A    between atoms: _374  and  _375
REMARK  158  A    between atoms: _384  and  _386
REMARK  159  A    between atoms: _386  and  _387
REMARK  160  A    between atoms: _386  and  _389
REMARK  161  A    between atoms: _389  and  _390
REMARK  162  A    between atoms: _393  and  _395
REMARK  163  A    between atoms: _395  and  _396
REMARK  164  A    between atoms: _400  and  _401
REMARK  165  A    between atoms: _406  and  _408
REMARK  166  A    between atoms: _408  and  _409
REMARK  167  A    between atoms: _408  and  _411
REMARK  168  A    between atoms: _411  and  _412
REMARK  169  A    between atoms: _418  and  _419
REMARK  170  A    between atoms: _424  and  _426
REMARK  171  A    between atoms: _426  and  _427
REMARK  172  A    between atoms: _426  and  _429
REMARK  173  A    between atoms: _429  and  _430
REMARK  174  A    between atoms: _433  and  _435
REMARK  175  A    between atoms: _435  and  _436
REMARK  176  A    between atoms: _435  and  _438
REMARK  177  A    between atoms: _438  and  _439
REMARK  178  A    between atoms: _442  and  _444
REMARK  179  A    between atoms: _444  and  _445
REMARK  180  A    between atoms: _444  and  _447
REMARK  181  A    between atoms: _447  and  _448
REMARK  182  A    between atoms: _448  and  _449
REMARK  183  A    between atoms: _451  and  _453
REMARK  184  A    between atoms: _453  and  _454
REMARK  185  A    between atoms: _453  and  _456
REMARK  186  A    between atoms: _456  and  _457
REMARK  187  A    between atoms: _457  and  _458
REMARK  188  A    between atoms: _461  and  _463
REMARK  189  A    between atoms: _463  and  _464
REMARK  190  A    between atoms: _463  and  _466
REMARK  191  A    between atoms: _466  and  _467
REMARK  192  A    between atoms: _470  and  _472
REMARK  193  A    between atoms: _472  and  _473
REMARK  194  A    between atoms: _472  and  _475
REMARK  195  A    between atoms: _478  and  _480
REMARK  196  A    between atoms: _480  and  _481
REMARK  197  A    between atoms: _480  and  _483
REMARK  198  A    between atoms: _483  and  _484
REMARK  199  A    between atoms: _490  and  _492
REMARK  200  A    between atoms: _492  and  _493
REMARK  201  A    between atoms: _492  and  _495
REMARK  202  A    between atoms: _495  and  _496
REMARK  203  A    between atoms: _496  and  _497
REMARK  204  A    between atoms: _500  and  _502
REMARK  205  A    between atoms: _502  and  _503
REMARK  206  A    between atoms: _502  and  _505
REMARK  207  A    between atoms: _505  and  _506
REMARK  208  A    between atoms: _511  and  _513
REMARK  209  A    between atoms: _513  and  _514
REMARK  210  A    between atoms: _513  and  _516
REMARK  211  A    between atoms: _516  and  _517
REMARK  212  A    between atoms: _517  and  _518
REMARK  213  A    between atoms: _518  and  _519
REMARK  214  A    between atoms: _528  and  _530
REMARK  215  A    between atoms: _530  and  _531
REMARK  216  A    between atoms: _530  and  _533
REMARK  217  A    between atoms: _533  and  _534
REMARK  218  A    between atoms: _537  and  _539
REMARK  219  A    between atoms: _539  and  _540
REMARK  220  A    between atoms: _539  and  _542
REMARK  221  A    between atoms: _542  and  _543
REMARK  222  A    between atoms: _546  and  _548
REMARK  223  A    between atoms: _548  and  _549
REMARK  224  A    between atoms: _548  and  _551
REMARK  225  A    between atoms: _551  and  _552
REMARK  226  A    between atoms: _552  and  _553
REMARK  227  A    between atoms: _553  and  _554
REMARK  228  A    between atoms: _563  and  _565
REMARK  229  A    between atoms: _565  and  _566
REMARK  230  A    between atoms: _569  and  _571
REMARK  231  A    between atoms: _571  and  _572
REMARK  232  A    between atoms: _571  and  _574
REMARK  233  A    between atoms: _574  and  _575
REMARK  234  A    between atoms: _575  and  _576
REMARK  235  A    between atoms: _576  and  _577
REMARK  236  A    between atoms: _586  and  _588
REMARK  237  A    between atoms: _588  and  _589
REMARK                            x       y       z     vdW  Elec       q    Type
REMARK                         _______ _______ _______ _____ _____    ______ ____
ROOT
ATOM      1  O   HOH     1      -1.255  -5.740  -7.122  0.00  0.00    +0.000 OA
ENDROOT
TORSDOF 0
REMARK  Name = ../refined-set-2016/3iss/3iss_pocket.pdb
REMARK  237 active torsions:
REMARK  status: ('A' for Active; 'I' for Inactive)
REMARK    1  A    between atoms: _1  and  _3
REMARK    2  A    between atoms: _3  and  _4
REMARK    3  A    between atoms: _3  and  _6
REMARK    4  A    between atoms: _6  and  _7
REMARK    5  A    between atoms: _7  and  _8
REMARK    6  A    between atoms: _8  and  _9
REMARK    7  A    between atoms: _9  and  _10
REMARK    8  A    between atoms: _14  and  _16
REMARK    9  A    between atoms: _16  and  _17
REMARK   10  A    between atoms: _16  and  _19
REMARK   11  A    between atoms: _19  and  _20
REMARK   12  A    between atoms: _25  and  _27
REMARK   13  A    between atoms: _27  and  _28
REMARK   14  A    between atoms: _31  and  _33
REMARK   15  A    between atoms: _33  and  _34
REMARK   16  A    between atoms: _33  and  _36
REMARK   17  A    between atoms: _36  and  _37
REMARK   18  A    between atoms: _41  and  _42
REMARK   19  A    between atoms: _47  and  _49
REMARK   20  A    between atoms: _49  and  _50
REMARK   21  A    between atoms: _49  and  _52
REMARK   22  A    between atoms: _52  and  _53
REMARK   23  A    between atoms: _56  and  _58
REMARK   24  A    between atoms: _58  and  _59
REMARK   25  A    between atoms: _58  and  _61
REMARK   26  A    between atoms: _61  and  _62
REMARK   27  A    between atoms: _62  and  _63
REMARK   28  A    between atoms: _65  and  _67
REMARK   29  A    between atoms: _67  and  _68
REMARK   30  A    between atoms: _67  and  _70
REMARK   31  A    between atoms: _70  and  _71
REMARK   32  A    between atoms: _71  and  _72
REMARK   33  A    between atoms: _72  and  _73
REMARK   34  A    between atoms: _82  and  _84
REMARK   35  A    between atoms: _84  and  _85
REMARK   36  A    between atoms: _88  and  _90
REMARK   37  A    between atoms: _90  and  _91
REMARK   38  A    between atoms: _90  and  _93
REMARK   39  A    between atoms: _93  and  _94
REMARK   40  A    between atoms: _96  and  _98
REMARK   41  A    between atoms: _98  and  _99
REMARK   42  A    between atoms: _98  and  _101
REMARK   43  A    between atoms: _101  and  _102
REMARK   44  A    between atoms: _105  and  _107
REMARK   45  A    between atoms: _107  and  _108
REMARK   46  A    between atoms: _107  and  _110
REMARK   47  A    between atoms: _110  and  _111
REMARK   48  A    between atoms: _121  and  _123
REMARK   49  A    between atoms: _123  and  _124
REMARK   50  A    between atoms: _123  and  _126
REMARK   51  A    between atoms: _128  and  _130
REMARK   52  A    between atoms: _130  and  _131
REMARK   53  A    between atoms: _130  and  _133
REMARK   54  A    between atoms: _133  and  _134
REMARK   55  A    between atoms: _137  and  _139
REMARK   56  A    between atoms: _139  and  _140
REMARK   57  A    between atoms: _142  and  _144
REMARK   58  A    between atoms: _144  and  _145
REMARK   59  A    between atoms: _148  and  _150
REMARK   60  A    between atoms: _150  and  _151
REMARK   61  A    between atoms: _150  and  _153
REMARK   62  A    between atoms: _153  and  _154
REMARK   63  A    between atoms: _154  and  _155
REMARK   64  A    between atoms: _155  and  _156
REMARK   65  A    between atoms: _166  and  _167
REMARK   66  A    between atoms: _172  and  _174
REMARK   67  A    between atoms: _174  and  _175
REMARK   68  A    between atoms: _174  and  _177
REMARK   69  A    between atoms: _180  and  _182
REMARK   70  A    between atoms: _182  and  _183
REMARK   71  A    between atoms: _182  and  _185
REMARK   72  A    between atoms: _185  and  _186
REMARK   73  A    between atoms: _189  and  _191
REMARK   74  A    between atoms: _191  and  _192
REMARK   75  A    between atoms: _191  and  _194
REMARK   76  A    between atoms: _194  and  _195
REMARK   77  A    between atoms: _198  and  _200
REMARK   78  A    between atoms: _200  and  _201
REMARK   79  A    between atoms: _200  and  _203
REMARK   80  A    between atoms: _203  and  _204
REMARK   81  A    between atoms: _209  and  _211
REMARK   82  A    between atoms: _211  and  _212
REMARK   83  A    between atoms: _211  and  _214
REMARK   84  A    between atoms: _214  and  _215
REMARK   85  A    between atoms: _218  and  _220
REMARK   86  A    between atoms: _220  and  _221
REMARK   87  A    between atoms: _220  and  _223
REMARK   88  A    between atoms: _223  and  _224
REMARK   89  A    between atoms: _226  and  _228
REMARK   90  A    between atoms: _228  and  _229
REMARK   91  A    between atoms: _231  and  _233
REMARK   92  A    between atoms: _233  and  _234
REMARK   93  A    between atoms: _233  and  _236
REMARK   94  A    between atoms: _236  and  _237
REMARK   95  A    between atoms: _237  and  _238
REMARK   96  A    between atoms: _240  and  _242
REMARK   97  A    between atoms: _242  and  _243
REMARK   98  A    between atoms: _242  and  _245
REMARK   99  A    between atoms: _245  and  _246
REMARK  100  A    between atoms: _249  and  _251
REMARK  101  A    between atoms: _251  and  _252
REMARK  102  A    between atoms: _251  and  _254
REMARK  103  A    between atoms: _254  and  _255
REMARK  104  A    between atoms: _255  and  _256
REMARK  105  A    between atoms: _256  and  _257
REMARK  106  A    between atoms: _257  and  _258
REMARK  107  A    between atoms: _262  and  _264
REMARK  108  A    between atoms: _264  and  _265
REMARK  109  A    between atoms: _264  and  _267
REMARK  110  A    between atoms: _270  and  _272
REMARK  111  A    between atoms: _272  and  _273
REMARK  112  A    between atoms: _272  and  _275
REMARK  113  A    between atoms: _275  and  _276
REMARK  114  A    between atoms: _278  and  _280
REMARK  115  A    between atoms: _280  and  _281
REMARK  116  A    between atoms: _280  and  _283
REMARK  117  A    between atoms: _286  and  _288
REMARK  118  A    between atoms: _288  and  _289
REMARK  119  A    between atoms: _291  and  _293
REMARK  120  A    between atoms: _293  and  _294
REMARK  121  A    between atoms: _297  and  _299
REMARK  122  A    between atoms: _299  and  _300
REMARK  123  A    between atoms: _299  and  _302
REMARK  124  A    between atoms: _302  and  _303
REMARK  125  A    between atoms: _306  and  _308
REMARK  126  A    between atoms: _308  and  _309
REMARK  127  A    between atoms: _308  and  _311
REMARK  128  A    between atoms: _314  and  _316
REMARK  129  A    between atoms: _316  and  _317
REMARK  130  A    between atoms: _316  and  _319
REMARK  131  A    between atoms: _319  and  _320
REMARK  132  A    between atoms: _323  and  _325
REMARK  133  A    between atoms: _325  and  _326
REMARK  134  A    between atoms: _329  and  _331
REMARK  135  A    between atoms: _331  and  _332
REMARK  136  A    between atoms: _331  and  _334
REMARK  137  A    between atoms: _334  and  _335
REMARK  138  A    between atoms: _335  and  _336
REMARK  139  A    between atoms: _339  and  _341
REMARK  140  A    between atoms: _341  and  _342
REMARK  141  A    between atoms: _341  and  _344
REMARK  142  A    between atoms: _344  and  _345
REMARK  143  A    between atoms: _345  and  _346
REMARK  144  A    between atoms: _349  and  _351
REMARK  145  A    between atoms: _351  and  _352
REMARK  146  A    between atoms: _351  and  _354
REMARK  147  A    between atoms: _354  and  _355
REMARK  148  A    between atoms: _358  and  _360
REMARK  149  A    between atoms: _360  and  _361
REMARK  150  A    between atoms: _360  and  _363
REMARK  151  A    between atoms: _363  and  _364
REMARK  152  A    between atoms: _367  and  _369
REMARK  153  A    between atoms: _369  and  _370
REMARK  154  A    between atoms: _369  and  _372
REMARK  155  A    between atoms: _372  and  _373
REMARK  156  A    between atoms: _373  and  _374
REMARK  157  A    between atoms: _374  and  _375
REMARK  158  A    between atoms: _384  and  _386
REMARK  159  A    between atoms: _386  and  _387
REMARK  160  A    between atoms: _386  and  _389
REMARK  161  A    between atoms: _389  and  _390
REMARK  162  A    between atoms: _393  and  _395
REMARK  163  A    between atoms: _395  and  _396
REMARK  164  A    between atoms: _400  and  _401
REMARK  165  A    between atoms: _406  and  _408
REMARK  166  A    between atoms: _408  and  _409
REMARK  167  A    between atoms: _408  and  _411
REMARK  168  A    between atoms: _411  and  _412
REMARK  169  A    between atoms: _418  and  _419
REMARK  170  A    between atoms: _424  and  _426
REMARK  171  A    between atoms: _426  and  _427
REMARK  172  A    between atoms: _426  and  _429
REMARK  173  A    between atoms: _429  and  _430
REMARK  174  A    between atoms: _433  and  _435
REMARK  175  A    between atoms: _435  and  _436
REMARK  176  A    between atoms: _435  and  _438
REMARK  177  A    between atoms: _438  and  _439
REMARK  178  A    between atoms: _442  and  _444
REMARK  179  A    between atoms: _444  and  _445
REMARK  180  A    between atoms: _444  and  _447
REMARK  181  A    between atoms: _447  and  _448
REMARK  182  A    between atoms: _448  and  _449
REMARK  183  A    between atoms: _451  and  _453
REMARK  184  A    between atoms: _453  and  _454
REMARK  185  A    between atoms: _453  and  _456
REMARK  186  A    between atoms: _456  and  _457
REMARK  187  A    between atoms: _457  and  _458
REMARK  188  A    between atoms: _461  and  _463
REMARK  189  A    between atoms: _463  and  _464
REMARK  190  A    between atoms: _463  and  _466
REMARK  191  A    between atoms: _466  and  _467
REMARK  192  A    between atoms: _470  and  _472
REMARK  193  A    between atoms: _472  and  _473
REMARK  194  A    between atoms: _472  and  _475
REMARK  195  A    between atoms: _478  and  _480
REMARK  196  A    between atoms: _480  and  _481
REMARK  197  A    between atoms: _480  and  _483
REMARK  198  A    between atoms: _483  and  _484
REMARK  199  A    between atoms: _490  and  _492
REMARK  200  A    between atoms: _492  and  _493
REMARK  201  A    between atoms: _492  and  _495
REMARK  202  A    between atoms: _495  and  _496
REMARK  203  A    between atoms: _496  and  _497
REMARK  204  A    between atoms: _500  and  _502
REMARK  205  A    between atoms: _502  and  _503
REMARK  206  A    between atoms: _502  and  _505
REMARK  207  A    between atoms: _505  and  _506
REMARK  208  A    between atoms: _511  and  _513
REMARK  209  A    between atoms: _513  and  _514
REMARK  210  A    between atoms: _513  and  _516
REMARK  211  A    between atoms: _516  and  _517
REMARK  212  A    between atoms: _517  and  _518
REMARK  213  A    between atoms: _518  and  _519
REMARK  214  A    between atoms: _528  and  _530
REMARK  215  A    between atoms: _530  and  _531
REMARK  216  A    between atoms: _530  and  _533
REMARK  217  A    between atoms: _533  and  _534
REMARK  218  A    between atoms: _537  and  _539
REMARK  219  A    between atoms: _539  and  _540
REMARK  220  A    between atoms: _539  and  _542
REMARK  221  A    between atoms: _542  and  _543
REMARK  222  A    between atoms: _546  and  _548
REMARK  223  A    between atoms: _548  and  _549
REMARK  224  A    between atoms: _548  and  _551
REMARK  225  A    between atoms: _551  and  _552
REMARK  226  A    between atoms: _552  and  _553
REMARK  227  A    between atoms: _553  and  _554
REMARK  228  A    between atoms: _563  and  _565
REMARK  229  A    between atoms: _565  and  _566
REMARK  230  A    between atoms: _569  and  _571
REMARK  231  A    between atoms: _571  and  _572
REMARK  232  A    between atoms: _571  and  _574
REMARK  233  A    between atoms: _574  and  _575
REMARK  234  A    between atoms: _575  and  _576
REMARK  235  A    between atoms: _576  and  _577
REMARK  236  A    between atoms: _586  and  _588
REMARK  237  A    between atoms: _588  and  _589
REMARK                            x       y       z     vdW  Elec       q    Type
REMARK                         _______ _______ _______ _____ _____    ______ ____
ROOT
ATOM      1  O   HOH     1       2.800   1.849  -0.300  0.00  0.00    +0.000 OA
ENDROOT
TORSDOF 0
REMARK  Name = ../refined-set-2016/3iss/3iss_pocket.pdb
REMARK  237 active torsions:
REMARK  status: ('A' for Active; 'I' for Inactive)
REMARK    1  A    between atoms: _1  and  _3
REMARK    2  A    between atoms: _3  and  _4
REMARK    3  A    between atoms: _3  and  _6
REMARK    4  A    between atoms: _6  and  _7
REMARK    5  A    between atoms: _7  and  _8
REMARK    6  A    between atoms: _8  and  _9
REMARK    7  A    between atoms: _9  and  _10
REMARK    8  A    between atoms: _14  and  _16
REMARK    9  A    between atoms: _16  and  _17
REMARK   10  A    between atoms: _16  and  _19
REMARK   11  A    between atoms: _19  and  _20
REMARK   12  A    between atoms: _25  and  _27
REMARK   13  A    between atoms: _27  and  _28
REMARK   14  A    between atoms: _31  and  _33
REMARK   15  A    between atoms: _33  and  _34
REMARK   16  A    between atoms: _33  and  _36
REMARK   17  A    between atoms: _36  and  _37
REMARK   18  A    between atoms: _41  and  _42
REMARK   19  A    between atoms: _47  and  _49
REMARK   20  A    between atoms: _49  and  _50
REMARK   21  A    between atoms: _49  and  _52
REMARK   22  A    between atoms: _52  and  _53
REMARK   23  A    between atoms: _56  and  _58
REMARK   24  A    between atoms: _58  and  _59
REMARK   25  A    between atoms: _58  and  _61
REMARK   26  A    between atoms: _61  and  _62
REMARK   27  A    between atoms: _62  and  _63
REMARK   28  A    between atoms: _65  and  _67
REMARK   29  A    between atoms: _67  and  _68
REMARK   30  A    between atoms: _67  and  _70
REMARK   31  A    between atoms: _70  and  _71
REMARK   32  A    between atoms: _71  and  _72
REMARK   33  A    between atoms: _72  and  _73
REMARK   34  A    between atoms: _82  and  _84
REMARK   35  A    between atoms: _84  and  _85
REMARK   36  A    between atoms: _88  and  _90
REMARK   37  A    between atoms: _90  and  _91
REMARK   38  A    between atoms: _90  and  _93
REMARK   39  A    between atoms: _93  and  _94
REMARK   40  A    between atoms: _96  and  _98
REMARK   41  A    between atoms: _98  and  _99
REMARK   42  A    between atoms: _98  and  _101
REMARK   43  A    between atoms: _101  and  _102
REMARK   44  A    between atoms: _105  and  _107
REMARK   45  A    between atoms: _107  and  _108
REMARK   46  A    between atoms: _107  and  _110
REMARK   47  A    between atoms: _110  and  _111
REMARK   48  A    between atoms: _121  and  _123
REMARK   49  A    between atoms: _123  and  _124
REMARK   50  A    between atoms: _123  and  _126
REMARK   51  A    between atoms: _128  and  _130
REMARK   52  A    between atoms: _130  and  _131
REMARK   53  A    between atoms: _130  and  _133
REMARK   54  A    between atoms: _133  and  _134
REMARK   55  A    between atoms: _137  and  _139
REMARK   56  A    between atoms: _139  and  _140
REMARK   57  A    between atoms: _142  and  _144
REMARK   58  A    between atoms: _144  and  _145
REMARK   59  A    between atoms: _148  and  _150
REMARK   60  A    between atoms: _150  and  _151
REMARK   61  A    between atoms: _150  and  _153
REMARK   62  A    between atoms: _153  and  _154
REMARK   63  A    between atoms: _154  and  _155
REMARK   64  A    between atoms: _155  and  _156
REMARK   65  A    between atoms: _166  and  _167
REMARK   66  A    between atoms: _172  and  _174
REMARK   67  A    between atoms: _174  and  _175
REMARK   68  A    between atoms: _174  and  _177
REMARK   69  A    between atoms: _180  and  _182
REMARK   70  A    between atoms: _182  and  _183
REMARK   71  A    between atoms: _182  and  _185
REMARK   72  A    between atoms: _185  and  _186
REMARK   73  A    between atoms: _189  and  _191
REMARK   74  A    between atoms: _191  and  _192
REMARK   75  A    between atoms: _191  and  _194
REMARK   76  A    between atoms: _194  and  _195
REMARK   77  A    between atoms: _198  and  _200
REMARK   78  A    between atoms: _200  and  _201
REMARK   79  A    between atoms: _200  and  _203
REMARK   80  A    between atoms: _203  and  _204
REMARK   81  A    between atoms: _209  and  _211
REMARK   82  A    between atoms: _211  and  _212
REMARK   83  A    between atoms: _211  and  _214
REMARK   84  A    between atoms: _214  and  _215
REMARK   85  A    between atoms: _218  and  _220
REMARK   86  A    between atoms: _220  and  _221
REMARK   87  A    between atoms: _220  and  _223
REMARK   88  A    between atoms: _223  and  _224
REMARK   89  A    between atoms: _226  and  _228
REMARK   90  A    between atoms: _228  and  _229
REMARK   91  A    between atoms: _231  and  _233
REMARK   92  A    between atoms: _233  and  _234
REMARK   93  A    between atoms: _233  and  _236
REMARK   94  A    between atoms: _236  and  _237
REMARK   95  A    between atoms: _237  and  _238
REMARK   96  A    between atoms: _240  and  _242
REMARK   97  A    between atoms: _242  and  _243
REMARK   98  A    between atoms: _242  and  _245
REMARK   99  A    between atoms: _245  and  _246
REMARK  100  A    between atoms: _249  and  _251
REMARK  101  A    between atoms: _251  and  _252
REMARK  102  A    between atoms: _251  and  _254
REMARK  103  A    between atoms: _254  and  _255
REMARK  104  A    between atoms: _255  and  _256
REMARK  105  A    between atoms: _256  and  _257
REMARK  106  A    between atoms: _257  and  _258
REMARK  107  A    between atoms: _262  and  _264
REMARK  108  A    between atoms: _264  and  _265
REMARK  109  A    between atoms: _264  and  _267
REMARK  110  A    between atoms: _270  and  _272
REMARK  111  A    between atoms: _272  and  _273
REMARK  112  A    between atoms: _272  and  _275
REMARK  113  A    between atoms: _275  and  _276
REMARK  114  A    between atoms: _278  and  _280
REMARK  115  A    between atoms: _280  and  _281
REMARK  116  A    between atoms: _280  and  _283
REMARK  117  A    between atoms: _286  and  _288
REMARK  118  A    between atoms: _288  and  _289
REMARK  119  A    between atoms: _291  and  _293
REMARK  120  A    between atoms: _293  and  _294
REMARK  121  A    between atoms: _297  and  _299
REMARK  122  A    between atoms: _299  and  _300
REMARK  123  A    between atoms: _299  and  _302
REMARK  124  A    between atoms: _302  and  _303
REMARK  125  A    between atoms: _306  and  _308
REMARK  126  A    between atoms: _308  and  _309
REMARK  127  A    between atoms: _308  and  _311
REMARK  128  A    between atoms: _314  and  _316
REMARK  129  A    between atoms: _316  and  _317
REMARK  130  A    between atoms: _316  and  _319
REMARK  131  A    between atoms: _319  and  _320
REMARK  132  A    between atoms: _323  and  _325
REMARK  133  A    between atoms: _325  and  _326
REMARK  134  A    between atoms: _329  and  _331
REMARK  135  A    between atoms: _331  and  _332
REMARK  136  A    between atoms: _331  and  _334
REMARK  137  A    between atoms: _334  and  _335
REMARK  138  A    between atoms: _335  and  _336
REMARK  139  A    between atoms: _339  and  _341
REMARK  140  A    between atoms: _341  and  _342
REMARK  141  A    between atoms: _341  and  _344
REMARK  142  A    between atoms: _344  and  _345
REMARK  143  A    between atoms: _345  and  _346
REMARK  144  A    between atoms: _349  and  _351
REMARK  145  A    between atoms: _351  and  _352
REMARK  146  A    between atoms: _351  and  _354
REMARK  147  A    between atoms: _354  and  _355
REMARK  148  A    between atoms: _358  and  _360
REMARK  149  A    between atoms: _360  and  _361
REMARK  150  A    between atoms: _360  and  _363
REMARK  151  A    between atoms: _363  and  _364
REMARK  152  A    between atoms: _367  and  _369
REMARK  153  A    between atoms: _369  and  _370
REMARK  154  A    between atoms: _369  and  _372
REMARK  155  A    between atoms: _372  and  _373
REMARK  156  A    between atoms: _373  and  _374
REMARK  157  A    between atoms: _374  and  _375
REMARK  158  A    between atoms: _384  and  _386
REMARK  159  A    between atoms: _386  and  _387
REMARK  160  A    between atoms: _386  and  _389
REMARK  161  A    between atoms: _389  and  _390
REMARK  162  A    between atoms: _393  and  _395
REMARK  163  A    between atoms: _395  and  _396
REMARK  164  A    between atoms: _400  and  _401
REMARK  165  A    between atoms: _406  and  _408
REMARK  166  A    between atoms: _408  and  _409
REMARK  167  A    between atoms: _408  and  _411
REMARK  168  A    between atoms: _411  and  _412
REMARK  169  A    between atoms: _418  and  _419
REMARK  170  A    between atoms: _424  and  _426
REMARK  171  A    between atoms: _426  and  _427
REMARK  172  A    between atoms: _426  and  _429
REMARK  173  A    between atoms: _429  and  _430
REMARK  174  A    between atoms: _433  and  _435
REMARK  175  A    between atoms: _435  and  _436
REMARK  176  A    between atoms: _435  and  _438
REMARK  177  A    between atoms: _438  and  _439
REMARK  178  A    between atoms: _442  and  _444
REMARK  179  A    between atoms: _444  and  _445
REMARK  180  A    between atoms: _444  and  _447
REMARK  181  A    between atoms: _447  and  _448
REMARK  182  A    between atoms: _448  and  _449
REMARK  183  A    between atoms: _451  and  _453
REMARK  184  A    between atoms: _453  and  _454
REMARK  185  A    between atoms: _453  and  _456
REMARK  186  A    between atoms: _456  and  _457
REMARK  187  A    between atoms: _457  and  _458
REMARK  188  A    between atoms: _461  and  _463
REMARK  189  A    between atoms: _463  and  _464
REMARK  190  A    between atoms: _463  and  _466
REMARK  191  A    between atoms: _466  and  _467
REMARK  192  A    between atoms: _470  and  _472
REMARK  193  A    between atoms: _472  and  _473
REMARK  194  A    between atoms: _472  and  _475
REMARK  195  A    between atoms: _478  and  _480
REMARK  196  A    between atoms: _480  and  _481
REMARK  197  A    between atoms: _480  and  _483
REMARK  198  A    between atoms: _483  and  _484
REMARK  199  A    between atoms: _490  and  _492
REMARK  200  A    between atoms: _492  and  _493
REMARK  201  A    between atoms: _492  and  _495
REMARK  202  A    between atoms: _495  and  _496
REMARK  203  A    between atoms: _496  and  _497
REMARK  204  A    between atoms: _500  and  _502
REMARK  205  A    between atoms: _502  and  _503
REMARK  206  A    between atoms: _502  and  _505
REMARK  207  A    between atoms: _505  and  _506
REMARK  208  A    between atoms: _511  and  _513
REMARK  209  A    between atoms: _513  and  _514
REMARK  210  A    between atoms: _513  and  _516
REMARK  211  A    between atoms: _516  and  _517
REMARK  212  A    between atoms: _517  and  _518
REMARK  213  A    between atoms: _518  and  _519
REMARK  214  A    between atoms: _528  and  _530
REMARK  215  A    between atoms: _530  and  _531
REMARK  216  A    between atoms: _530  and  _533
REMARK  217  A    between atoms: _533  and  _534
REMARK  218  A    between atoms: _537  and  _539
REMARK  219  A    between atoms: _539  and  _540
REMARK  220  A    between atoms: _539  and  _542
REMARK  221  A    between atoms: _542  and  _543
REMARK  222  A    between atoms: _546  and  _548
REMARK  223  A    between atoms: _548  and  _549
REMARK  224  A    between atoms: _548  and  _551
REMARK  225  A    between atoms: _551  and  _552
REMARK  226  A    between atoms: _552  and  _553
REMARK  227  A    between atoms: _553  and  _554
REMARK  228  A    between atoms: _563  and  _565
REMARK  229  A    between atoms: _565  and  _566
REMARK  230  A    between atoms: _569  and  _571
REMARK  231  A    between atoms: _571  and  _572
REMARK  232  A    between atoms: _571  and  _574
REMARK  233  A    between atoms: _574  and  _575
REMARK  234  A    between atoms: _575  and  _576
REMARK  235  A    between atoms: _576  and  _577
REMARK  236  A    between atoms: _586  and  _588
REMARK  237  A    between atoms: _588  and  _589
REMARK                            x       y       z     vdW  Elec       q    Type
REMARK                         _______ _______ _______ _____ _____    ______ ____
ROOT
ATOM      1  O   HOH     1       3.148  -9.274  -9.625  0.00  0.00    +0.000 OA
ENDROOT
TORSDOF 0
REMARK  Name = ../refined-set-2016/3iss/3iss_pocket.pdb
REMARK  237 active torsions:
REMARK  status: ('A' for Active; 'I' for Inactive)
REMARK    1  A    between atoms: _1  and  _3
REMARK    2  A    between atoms: _3  and  _4
REMARK    3  A    between atoms: _3  and  _6
REMARK    4  A    between atoms: _6  and  _7
REMARK    5  A    between atoms: _7  and  _8
REMARK    6  A    between atoms: _8  and  _9
REMARK    7  A    between atoms: _9  and  _10
REMARK    8  A    between atoms: _14  and  _16
REMARK    9  A    between atoms: _16  and  _17
REMARK   10  A    between atoms: _16  and  _19
REMARK   11  A    between atoms: _19  and  _20
REMARK   12  A    between atoms: _25  and  _27
REMARK   13  A    between atoms: _27  and  _28
REMARK   14  A    between atoms: _31  and  _33
REMARK   15  A    between atoms: _33  and  _34
REMARK   16  A    between atoms: _33  and  _36
REMARK   17  A    between atoms: _36  and  _37
REMARK   18  A    between atoms: _41  and  _42
REMARK   19  A    between atoms: _47  and  _49
REMARK   20  A    between atoms: _49  and  _50
REMARK   21  A    between atoms: _49  and  _52
REMARK   22  A    between atoms: _52  and  _53
REMARK   23  A    between atoms: _56  and  _58
REMARK   24  A    between atoms: _58  and  _59
REMARK   25  A    between atoms: _58  and  _61
REMARK   26  A    between atoms: _61  and  _62
REMARK   27  A    between atoms: _62  and  _63
REMARK   28  A    between atoms: _65  and  _67
REMARK   29  A    between atoms: _67  and  _68
REMARK   30  A    between atoms: _67  and  _70
REMARK   31  A    between atoms: _70  and  _71
REMARK   32  A    between atoms: _71  and  _72
REMARK   33  A    between atoms: _72  and  _73
REMARK   34  A    between atoms: _82  and  _84
REMARK   35  A    between atoms: _84  and  _85
REMARK   36  A    between atoms: _88  and  _90
REMARK   37  A    between atoms: _90  and  _91
REMARK   38  A    between atoms: _90  and  _93
REMARK   39  A    between atoms: _93  and  _94
REMARK   40  A    between atoms: _96  and  _98
REMARK   41  A    between atoms: _98  and  _99
REMARK   42  A    between atoms: _98  and  _101
REMARK   43  A    between atoms: _101  and  _102
REMARK   44  A    between atoms: _105  and  _107
REMARK   45  A    between atoms: _107  and  _108
REMARK   46  A    between atoms: _107  and  _110
REMARK   47  A    between atoms: _110  and  _111
REMARK   48  A    between atoms: _121  and  _123
REMARK   49  A    between atoms: _123  and  _124
REMARK   50  A    between atoms: _123  and  _126
REMARK   51  A    between atoms: _128  and  _130
REMARK   52  A    between atoms: _130  and  _131
REMARK   53  A    between atoms: _130  and  _133
REMARK   54  A    between atoms: _133  and  _134
REMARK   55  A    between atoms: _137  and  _139
REMARK   56  A    between atoms: _139  and  _140
REMARK   57  A    between atoms: _142  and  _144
REMARK   58  A    between atoms: _144  and  _145
REMARK   59  A    between atoms: _148  and  _150
REMARK   60  A    between atoms: _150  and  _151
REMARK   61  A    between atoms: _150  and  _153
REMARK   62  A    between atoms: _153  and  _154
REMARK   63  A    between atoms: _154  and  _155
REMARK   64  A    between atoms: _155  and  _156
REMARK   65  A    between atoms: _166  and  _167
REMARK   66  A    between atoms: _172  and  _174
REMARK   67  A    between atoms: _174  and  _175
REMARK   68  A    between atoms: _174  and  _177
REMARK   69  A    between atoms: _180  and  _182
REMARK   70  A    between atoms: _182  and  _183
REMARK   71  A    between atoms: _182  and  _185
REMARK   72  A    between atoms: _185  and  _186
REMARK   73  A    between atoms: _189  and  _191
REMARK   74  A    between atoms: _191  and  _192
REMARK   75  A    between atoms: _191  and  _194
REMARK   76  A    between atoms: _194  and  _195
REMARK   77  A    between atoms: _198  and  _200
REMARK   78  A    between atoms: _200  and  _201
REMARK   79  A    between atoms: _200  and  _203
REMARK   80  A    between atoms: _203  and  _204
REMARK   81  A    between atoms: _209  and  _211
REMARK   82  A    between atoms: _211  and  _212
REMARK   83  A    between atoms: _211  and  _214
REMARK   84  A    between atoms: _214  and  _215
REMARK   85  A    between atoms: _218  and  _220
REMARK   86  A    between atoms: _220  and  _221
REMARK   87  A    between atoms: _220  and  _223
REMARK   88  A    between atoms: _223  and  _224
REMARK   89  A    between atoms: _226  and  _228
REMARK   90  A    between atoms: _228  and  _229
REMARK   91  A    between atoms: _231  and  _233
REMARK   92  A    between atoms: _233  and  _234
REMARK   93  A    between atoms: _233  and  _236
REMARK   94  A    between atoms: _236  and  _237
REMARK   95  A    between atoms: _237  and  _238
REMARK   96  A    between atoms: _240  and  _242
REMARK   97  A    between atoms: _242  and  _243
REMARK   98  A    between atoms: _242  and  _245
REMARK   99  A    between atoms: _245  and  _246
REMARK  100  A    between atoms: _249  and  _251
REMARK  101  A    between atoms: _251  and  _252
REMARK  102  A    between atoms: _251  and  _254
REMARK  103  A    between atoms: _254  and  _255
REMARK  104  A    between atoms: _255  and  _256
REMARK  105  A    between atoms: _256  and  _257
REMARK  106  A    between atoms: _257  and  _258
REMARK  107  A    between atoms: _262  and  _264
REMARK  108  A    between atoms: _264  and  _265
REMARK  109  A    between atoms: _264  and  _267
REMARK  110  A    between atoms: _270  and  _272
REMARK  111  A    between atoms: _272  and  _273
REMARK  112  A    between atoms: _272  and  _275
REMARK  113  A    between atoms: _275  and  _276
REMARK  114  A    between atoms: _278  and  _280
REMARK  115  A    between atoms: _280  and  _281
REMARK  116  A    between atoms: _280  and  _283
REMARK  117  A    between atoms: _286  and  _288
REMARK  118  A    between atoms: _288  and  _289
REMARK  119  A    between atoms: _291  and  _293
REMARK  120  A    between atoms: _293  and  _294
REMARK  121  A    between atoms: _297  and  _299
REMARK  122  A    between atoms: _299  and  _300
REMARK  123  A    between atoms: _299  and  _302
REMARK  124  A    between atoms: _302  and  _303
REMARK  125  A    between atoms: _306  and  _308
REMARK  126  A    between atoms: _308  and  _309
REMARK  127  A    between atoms: _308  and  _311
REMARK  128  A    between atoms: _314  and  _316
REMARK  129  A    between atoms: _316  and  _317
REMARK  130  A    between atoms: _316  and  _319
REMARK  131  A    between atoms: _319  and  _320
REMARK  132  A    between atoms: _323  and  _325
REMARK  133  A    between atoms: _325  and  _326
REMARK  134  A    between atoms: _329  and  _331
REMARK  135  A    between atoms: _331  and  _332
REMARK  136  A    between atoms: _331  and  _334
REMARK  137  A    between atoms: _334  and  _335
REMARK  138  A    between atoms: _335  and  _336
REMARK  139  A    between atoms: _339  and  _341
REMARK  140  A    between atoms: _341  and  _342
REMARK  141  A    between atoms: _341  and  _344
REMARK  142  A    between atoms: _344  and  _345
REMARK  143  A    between atoms: _345  and  _346
REMARK  144  A    between atoms: _349  and  _351
REMARK  145  A    between atoms: _351  and  _352
REMARK  146  A    between atoms: _351  and  _354
REMARK  147  A    between atoms: _354  and  _355
REMARK  148  A    between atoms: _358  and  _360
REMARK  149  A    between atoms: _360  and  _361
REMARK  150  A    between atoms: _360  and  _363
REMARK  151  A    between atoms: _363  and  _364
REMARK  152  A    between atoms: _367  and  _369
REMARK  153  A    between atoms: _369  and  _370
REMARK  154  A    between atoms: _369  and  _372
REMARK  155  A    between atoms: _372  and  _373
REMARK  156  A    between atoms: _373  and  _374
REMARK  157  A    between atoms: _374  and  _375
REMARK  158  A    between atoms: _384  and  _386
REMARK  159  A    between atoms: _386  and  _387
REMARK  160  A    between atoms: _386  and  _389
REMARK  161  A    between atoms: _389  and  _390
REMARK  162  A    between atoms: _393  and  _395
REMARK  163  A    between atoms: _395  and  _396
REMARK  164  A    between atoms: _400  and  _401
REMARK  165  A    between atoms: _406  and  _408
REMARK  166  A    between atoms: _408  and  _409
REMARK  167  A    between atoms: _408  and  _411
REMARK  168  A    between atoms: _411  and  _412
REMARK  169  A    between atoms: _418  and  _419
REMARK  170  A    between atoms: _424  and  _426
REMARK  171  A    between atoms: _426  and  _427
REMARK  172  A    between atoms: _426  and  _429
REMARK  173  A    between atoms: _429  and  _430
REMARK  174  A    between atoms: _433  and  _435
REMARK  175  A    between atoms: _435  and  _436
REMARK  176  A    between atoms: _435  and  _438
REMARK  177  A    between atoms: _438  and  _439
REMARK  178  A    between atoms: _442  and  _444
REMARK  179  A    between atoms: _444  and  _445
REMARK  180  A    between atoms: _444  and  _447
REMARK  181  A    between atoms: _447  and  _448
REMARK  182  A    between atoms: _448  and  _449
REMARK  183  A    between atoms: _451  and  _453
REMARK  184  A    between atoms: _453  and  _454
REMARK  185  A    between atoms: _453  and  _456
REMARK  186  A    between atoms: _456  and  _457
REMARK  187  A    between atoms: _457  and  _458
REMARK  188  A    between atoms: _461  and  _463
REMARK  189  A    between atoms: _463  and  _464
REMARK  190  A    between atoms: _463  and  _466
REMARK  191  A    between atoms: _466  and  _467
REMARK  192  A    between atoms: _470  and  _472
REMARK  193  A    between atoms: _472  and  _473
REMARK  194  A    between atoms: _472  and  _475
REMARK  195  A    between atoms: _478  and  _480
REMARK  196  A    between atoms: _480  and  _481
REMARK  197  A    between atoms: _480  and  _483
REMARK  198  A    between atoms: _483  and  _484
REMARK  199  A    between atoms: _490  and  _492
REMARK  200  A    between atoms: _492  and  _493
REMARK  201  A    between atoms: _492  and  _495
REMARK  202  A    between atoms: _495  and  _496
REMARK  203  A    between atoms: _496  and  _497
REMARK  204  A    between atoms: _500  and  _502
REMARK  205  A    between atoms: _502  and  _503
REMARK  206  A    between atoms: _502  and  _505
REMARK  207  A    between atoms: _505  and  _506
REMARK  208  A    between atoms: _511  and  _513
REMARK  209  A    between atoms: _513  and  _514
REMARK  210  A    between atoms: _513  and  _516
REMARK  211  A    between atoms: _516  and  _517
REMARK  212  A    between atoms: _517  and  _518
REMARK  213  A    between atoms: _518  and  _519
REMARK  214  A    between atoms: _528  and  _530
REMARK  215  A    between atoms: _530  and  _531
REMARK  216  A    between atoms: _530  and  _533
REMARK  217  A    between atoms: _533  and  _534
REMARK  218  A    between atoms: _537  and  _539
REMARK  219  A    between atoms: _539  and  _540
REMARK  220  A    between atoms: _539  and  _542
REMARK  221  A    between atoms: _542  and  _543
REMARK  222  A    between atoms: _546  and  _548
REMARK  223  A    between atoms: _548  and  _549
REMARK  224  A    between atoms: _548  and  _551
REMARK  225  A    between atoms: _551  and  _552
REMARK  226  A    between atoms: _552  and  _553
REMARK  227  A    between atoms: _553  and  _554
REMARK  228  A    between atoms: _563  and  _565
REMARK  229  A    between atoms: _565  and  _566
REMARK  230  A    between atoms: _569  and  _571
REMARK  231  A    between atoms: _571  and  _572
REMARK  232  A    between atoms: _571  and  _574
REMARK  233  A    between atoms: _574  and  _575
REMARK  234  A    between atoms: _575  and  _576
REMARK  235  A    between atoms: _576  and  _577
REMARK  236  A    between atoms: _586  and  _588
REMARK  237  A    between atoms: _588  and  _589
REMARK                            x       y       z     vdW  Elec       q    Type
REMARK                         _______ _______ _______ _____ _____    ______ ____
ROOT
ATOM      1  O   HOH     1      -3.084 -11.198   0.702  0.00  0.00    +0.000 OA
ENDROOT
TORSDOF 0
REMARK  Name = ../refined-set-2016/3iss/3iss_pocket.pdb
REMARK  237 active torsions:
REMARK  status: ('A' for Active; 'I' for Inactive)
REMARK    1  A    between atoms: _1  and  _3
REMARK    2  A    between atoms: _3  and  _4
REMARK    3  A    between atoms: _3  and  _6
REMARK    4  A    between atoms: _6  and  _7
REMARK    5  A    between atoms: _7  and  _8
REMARK    6  A    between atoms: _8  and  _9
REMARK    7  A    between atoms: _9  and  _10
REMARK    8  A    between atoms: _14  and  _16
REMARK    9  A    between atoms: _16  and  _17
REMARK   10  A    between atoms: _16  and  _19
REMARK   11  A    between atoms: _19  and  _20
REMARK   12  A    between atoms: _25  and  _27
REMARK   13  A    between atoms: _27  and  _28
REMARK   14  A    between atoms: _31  and  _33
REMARK   15  A    between atoms: _33  and  _34
REMARK   16  A    between atoms: _33  and  _36
REMARK   17  A    between atoms: _36  and  _37
REMARK   18  A    between atoms: _41  and  _42
REMARK   19  A    between atoms: _47  and  _49
REMARK   20  A    between atoms: _49  and  _50
REMARK   21  A    between atoms: _49  and  _52
REMARK   22  A    between atoms: _52  and  _53
REMARK   23  A    between atoms: _56  and  _58
REMARK   24  A    between atoms: _58  and  _59
REMARK   25  A    between atoms: _58  and  _61
REMARK   26  A    between atoms: _61  and  _62
REMARK   27  A    between atoms: _62  and  _63
REMARK   28  A    between atoms: _65  and  _67
REMARK   29  A    between atoms: _67  and  _68
REMARK   30  A    between atoms: _67  and  _70
REMARK   31  A    between atoms: _70  and  _71
REMARK   32  A    between atoms: _71  and  _72
REMARK   33  A    between atoms: _72  and  _73
REMARK   34  A    between atoms: _82  and  _84
REMARK   35  A    between atoms: _84  and  _85
REMARK   36  A    between atoms: _88  and  _90
REMARK   37  A    between atoms: _90  and  _91
REMARK   38  A    between atoms: _90  and  _93
REMARK   39  A    between atoms: _93  and  _94
REMARK   40  A    between atoms: _96  and  _98
REMARK   41  A    between atoms: _98  and  _99
REMARK   42  A    between atoms: _98  and  _101
REMARK   43  A    between atoms: _101  and  _102
REMARK   44  A    between atoms: _105  and  _107
REMARK   45  A    between atoms: _107  and  _108
REMARK   46  A    between atoms: _107  and  _110
REMARK   47  A    between atoms: _110  and  _111
REMARK   48  A    between atoms: _121  and  _123
REMARK   49  A    between atoms: _123  and  _124
REMARK   50  A    between atoms: _123  and  _126
REMARK   51  A    between atoms: _128  and  _130
REMARK   52  A    between atoms: _130  and  _131
REMARK   53  A    between atoms: _130  and  _133
REMARK   54  A    between atoms: _133  and  _134
REMARK   55  A    between atoms: _137  and  _139
REMARK   56  A    between atoms: _139  and  _140
REMARK   57  A    between atoms: _142  and  _144
REMARK   58  A    between atoms: _144  and  _145
REMARK   59  A    between atoms: _148  and  _150
REMARK   60  A    between atoms: _150  and  _151
REMARK   61  A    between atoms: _150  and  _153
REMARK   62  A    between atoms: _153  and  _154
REMARK   63  A    between atoms: _154  and  _155
REMARK   64  A    between atoms: _155  and  _156
REMARK   65  A    between atoms: _166  and  _167
REMARK   66  A    between atoms: _172  and  _174
REMARK   67  A    between atoms: _174  and  _175
REMARK   68  A    between atoms: _174  and  _177
REMARK   69  A    between atoms: _180  and  _182
REMARK   70  A    between atoms: _182  and  _183
REMARK   71  A    between atoms: _182  and  _185
REMARK   72  A    between atoms: _185  and  _186
REMARK   73  A    between atoms: _189  and  _191
REMARK   74  A    between atoms: _191  and  _192
REMARK   75  A    between atoms: _191  and  _194
REMARK   76  A    between atoms: _194  and  _195
REMARK   77  A    between atoms: _198  and  _200
REMARK   78  A    between atoms: _200  and  _201
REMARK   79  A    between atoms: _200  and  _203
REMARK   80  A    between atoms: _203  and  _204
REMARK   81  A    between atoms: _209  and  _211
REMARK   82  A    between atoms: _211  and  _212
REMARK   83  A    between atoms: _211  and  _214
REMARK   84  A    between atoms: _214  and  _215
REMARK   85  A    between atoms: _218  and  _220
REMARK   86  A    between atoms: _220  and  _221
REMARK   87  A    between atoms: _220  and  _223
REMARK   88  A    between atoms: _223  and  _224
REMARK   89  A    between atoms: _226  and  _228
REMARK   90  A    between atoms: _228  and  _229
REMARK   91  A    between atoms: _231  and  _233
REMARK   92  A    between atoms: _233  and  _234
REMARK   93  A    between atoms: _233  and  _236
REMARK   94  A    between atoms: _236  and  _237
REMARK   95  A    between atoms: _237  and  _238
REMARK   96  A    between atoms: _240  and  _242
REMARK   97  A    between atoms: _242  and  _243
REMARK   98  A    between atoms: _242  and  _245
REMARK   99  A    between atoms: _245  and  _246
REMARK  100  A    between atoms: _249  and  _251
REMARK  101  A    between atoms: _251  and  _252
REMARK  102  A    between atoms: _251  and  _254
REMARK  103  A    between atoms: _254  and  _255
REMARK  104  A    between atoms: _255  and  _256
REMARK  105  A    between atoms: _256  and  _257
REMARK  106  A    between atoms: _257  and  _258
REMARK  107  A    between atoms: _262  and  _264
REMARK  108  A    between atoms: _264  and  _265
REMARK  109  A    between atoms: _264  and  _267
REMARK  110  A    between atoms: _270  and  _272
REMARK  111  A    between atoms: _272  and  _273
REMARK  112  A    between atoms: _272  and  _275
REMARK  113  A    between atoms: _275  and  _276
REMARK  114  A    between atoms: _278  and  _280
REMARK  115  A    between atoms: _280  and  _281
REMARK  116  A    between atoms: _280  and  _283
REMARK  117  A    between atoms: _286  and  _288
REMARK  118  A    between atoms: _288  and  _289
REMARK  119  A    between atoms: _291  and  _293
REMARK  120  A    between atoms: _293  and  _294
REMARK  121  A    between atoms: _297  and  _299
REMARK  122  A    between atoms: _299  and  _300
REMARK  123  A    between atoms: _299  and  _302
REMARK  124  A    between atoms: _302  and  _303
REMARK  125  A    between atoms: _306  and  _308
REMARK  126  A    between atoms: _308  and  _309
REMARK  127  A    between atoms: _308  and  _311
REMARK  128  A    between atoms: _314  and  _316
REMARK  129  A    between atoms: _316  and  _317
REMARK  130  A    between atoms: _316  and  _319
REMARK  131  A    between atoms: _319  and  _320
REMARK  132  A    between atoms: _323  and  _325
REMARK  133  A    between atoms: _325  and  _326
REMARK  134  A    between atoms: _329  and  _331
REMARK  135  A    between atoms: _331  and  _332
REMARK  136  A    between atoms: _331  and  _334
REMARK  137  A    between atoms: _334  and  _335
REMARK  138  A    between atoms: _335  and  _336
REMARK  139  A    between atoms: _339  and  _341
REMARK  140  A    between atoms: _341  and  _342
REMARK  141  A    between atoms: _341  and  _344
REMARK  142  A    between atoms: _344  and  _345
REMARK  143  A    between atoms: _345  and  _346
REMARK  144  A    between atoms: _349  and  _351
REMARK  145  A    between atoms: _351  and  _352
REMARK  146  A    between atoms: _351  and  _354
REMARK  147  A    between atoms: _354  and  _355
REMARK  148  A    between atoms: _358  and  _360
REMARK  149  A    between atoms: _360  and  _361
REMARK  150  A    between atoms: _360  and  _363
REMARK  151  A    between atoms: _363  and  _364
REMARK  152  A    between atoms: _367  and  _369
REMARK  153  A    between atoms: _369  and  _370
REMARK  154  A    between atoms: _369  and  _372
REMARK  155  A    between atoms: _372  and  _373
REMARK  156  A    between atoms: _373  and  _374
REMARK  157  A    between atoms: _374  and  _375
REMARK  158  A    between atoms: _384  and  _386
REMARK  159  A    between atoms: _386  and  _387
REMARK  160  A    between atoms: _386  and  _389
REMARK  161  A    between atoms: _389  and  _390
REMARK  162  A    between atoms: _393  and  _395
REMARK  163  A    between atoms: _395  and  _396
REMARK  164  A    between atoms: _400  and  _401
REMARK  165  A    between atoms: _406  and  _408
REMARK  166  A    between atoms: _408  and  _409
REMARK  167  A    between atoms: _408  and  _411
REMARK  168  A    between atoms: _411  and  _412
REMARK  169  A    between atoms: _418  and  _419
REMARK  170  A    between atoms: _424  and  _426
REMARK  171  A    between atoms: _426  and  _427
REMARK  172  A    between atoms: _426  and  _429
REMARK  173  A    between atoms: _429  and  _430
REMARK  174  A    between atoms: _433  and  _435
REMARK  175  A    between atoms: _435  and  _436
REMARK  176  A    between atoms: _435  and  _438
REMARK  177  A    between atoms: _438  and  _439
REMARK  178  A    between atoms: _442  and  _444
REMARK  179  A    between atoms: _444  and  _445
REMARK  180  A    between atoms: _444  and  _447
REMARK  181  A    between atoms: _447  and  _448
REMARK  182  A    between atoms: _448  and  _449
REMARK  183  A    between atoms: _451  and  _453
REMARK  184  A    between atoms: _453  and  _454
REMARK  185  A    between atoms: _453  and  _456
REMARK  186  A    between atoms: _456  and  _457
REMARK  187  A    between atoms: _457  and  _458
REMARK  188  A    between atoms: _461  and  _463
REMARK  189  A    between atoms: _463  and  _464
REMARK  190  A    between atoms: _463  and  _466
REMARK  191  A    between atoms: _466  and  _467
REMARK  192  A    between atoms: _470  and  _472
REMARK  193  A    between atoms: _472  and  _473
REMARK  194  A    between atoms: _472  and  _475
REMARK  195  A    between atoms: _478  and  _480
REMARK  196  A    between atoms: _480  and  _481
REMARK  197  A    between atoms: _480  and  _483
REMARK  198  A    between atoms: _483  and  _484
REMARK  199  A    between atoms: _490  and  _492
REMARK  200  A    between atoms: _492  and  _493
REMARK  201  A    between atoms: _492  and  _495
REMARK  202  A    between atoms: _495  and  _496
REMARK  203  A    between atoms: _496  and  _497
REMARK  204  A    between atoms: _500  and  _502
REMARK  205  A    between atoms: _502  and  _503
REMARK  206  A    between atoms: _502  and  _505
REMARK  207  A    between atoms: _505  and  _506
REMARK  208  A    between atoms: _511  and  _513
REMARK  209  A    between atoms: _513  and  _514
REMARK  210  A    between atoms: _513  and  _516
REMARK  211  A    between atoms: _516  and  _517
REMARK  212  A    between atoms: _517  and  _518
REMARK  213  A    between atoms: _518  and  _519
REMARK  214  A    between atoms: _528  and  _530
REMARK  215  A    between atoms: _530  and  _531
REMARK  216  A    between atoms: _530  and  _533
REMARK  217  A    between atoms: _533  and  _534
REMARK  218  A    between atoms: _537  and  _539
REMARK  219  A    between atoms: _539  and  _540
REMARK  220  A    between atoms: _539  and  _542
REMARK  221  A    between atoms: _542  and  _543
REMARK  222  A    between atoms: _546  and  _548
REMARK  223  A    between atoms: _548  and  _549
REMARK  224  A    between atoms: _548  and  _551
REMARK  225  A    between atoms: _551  and  _552
REMARK  226  A    between atoms: _552  and  _553
REMARK  227  A    between atoms: _553  and  _554
REMARK  228  A    between atoms: _563  and  _565
REMARK  229  A    between atoms: _565  and  _566
REMARK  230  A    between atoms: _569  and  _571
REMARK  231  A    between atoms: _571  and  _572
REMARK  232  A    between atoms: _571  and  _574
REMARK  233  A    between atoms: _574  and  _575
REMARK  234  A    between atoms: _575  and  _576
REMARK  235  A    between atoms: _576  and  _577
REMARK  236  A    between atoms: _586  and  _588
REMARK  237  A    between atoms: _588  and  _589
REMARK                            x       y       z     vdW  Elec       q    Type
REMARK                         _______ _______ _______ _____ _____    ______ ____
ROOT
ATOM      1  O   HOH     1      -2.655  -3.585  -8.906  0.00  0.00    +0.000 OA
ENDROOT
TORSDOF 0
REMARK  Name = ../refined-set-2016/3iss/3iss_pocket.pdb
REMARK  237 active torsions:
REMARK  status: ('A' for Active; 'I' for Inactive)
REMARK    1  A    between atoms: _1  and  _3
REMARK    2  A    between atoms: _3  and  _4
REMARK    3  A    between atoms: _3  and  _6
REMARK    4  A    between atoms: _6  and  _7
REMARK    5  A    between atoms: _7  and  _8
REMARK    6  A    between atoms: _8  and  _9
REMARK    7  A    between atoms: _9  and  _10
REMARK    8  A    between atoms: _14  and  _16
REMARK    9  A    between atoms: _16  and  _17
REMARK   10  A    between atoms: _16  and  _19
REMARK   11  A    between atoms: _19  and  _20
REMARK   12  A    between atoms: _25  and  _27
REMARK   13  A    between atoms: _27  and  _28
REMARK   14  A    between atoms: _31  and  _33
REMARK   15  A    between atoms: _33  and  _34
REMARK   16  A    between atoms: _33  and  _36
REMARK   17  A    between atoms: _36  and  _37
REMARK   18  A    between atoms: _41  and  _42
REMARK   19  A    between atoms: _47  and  _49
REMARK   20  A    between atoms: _49  and  _50
REMARK   21  A    between atoms: _49  and  _52
REMARK   22  A    between atoms: _52  and  _53
REMARK   23  A    between atoms: _56  and  _58
REMARK   24  A    between atoms: _58  and  _59
REMARK   25  A    between atoms: _58  and  _61
REMARK   26  A    between atoms: _61  and  _62
REMARK   27  A    between atoms: _62  and  _63
REMARK   28  A    between atoms: _65  and  _67
REMARK   29  A    between atoms: _67  and  _68
REMARK   30  A    between atoms: _67  and  _70
REMARK   31  A    between atoms: _70  and  _71
REMARK   32  A    between atoms: _71  and  _72
REMARK   33  A    between atoms: _72  and  _73
REMARK   34  A    between atoms: _82  and  _84
REMARK   35  A    between atoms: _84  and  _85
REMARK   36  A    between atoms: _88  and  _90
REMARK   37  A    between atoms: _90  and  _91
REMARK   38  A    between atoms: _90  and  _93
REMARK   39  A    between atoms: _93  and  _94
REMARK   40  A    between atoms: _96  and  _98
REMARK   41  A    between atoms: _98  and  _99
REMARK   42  A    between atoms: _98  and  _101
REMARK   43  A    between atoms: _101  and  _102
REMARK   44  A    between atoms: _105  and  _107
REMARK   45  A    between atoms: _107  and  _108
REMARK   46  A    between atoms: _107  and  _110
REMARK   47  A    between atoms: _110  and  _111
REMARK   48  A    between atoms: _121  and  _123
REMARK   49  A    between atoms: _123  and  _124
REMARK   50  A    between atoms: _123  and  _126
REMARK   51  A    between atoms: _128  and  _130
REMARK   52  A    between atoms: _130  and  _131
REMARK   53  A    between atoms: _130  and  _133
REMARK   54  A    between atoms: _133  and  _134
REMARK   55  A    between atoms: _137  and  _139
REMARK   56  A    between atoms: _139  and  _140
REMARK   57  A    between atoms: _142  and  _144
REMARK   58  A    between atoms: _144  and  _145
REMARK   59  A    between atoms: _148  and  _150
REMARK   60  A    between atoms: _150  and  _151
REMARK   61  A    between atoms: _150  and  _153
REMARK   62  A    between atoms: _153  and  _154
REMARK   63  A    between atoms: _154  and  _155
REMARK   64  A    between atoms: _155  and  _156
REMARK   65  A    between atoms: _166  and  _167
REMARK   66  A    between atoms: _172  and  _174
REMARK   67  A    between atoms: _174  and  _175
REMARK   68  A    between atoms: _174  and  _177
REMARK   69  A    between atoms: _180  and  _182
REMARK   70  A    between atoms: _182  and  _183
REMARK   71  A    between atoms: _182  and  _185
REMARK   72  A    between atoms: _185  and  _186
REMARK   73  A    between atoms: _189  and  _191
REMARK   74  A    between atoms: _191  and  _192
REMARK   75  A    between atoms: _191  and  _194
REMARK   76  A    between atoms: _194  and  _195
REMARK   77  A    between atoms: _198  and  _200
REMARK   78  A    between atoms: _200  and  _201
REMARK   79  A    between atoms: _200  and  _203
REMARK   80  A    between atoms: _203  and  _204
REMARK   81  A    between atoms: _209  and  _211
REMARK   82  A    between atoms: _211  and  _212
REMARK   83  A    between atoms: _211  and  _214
REMARK   84  A    between atoms: _214  and  _215
REMARK   85  A    between atoms: _218  and  _220
REMARK   86  A    between atoms: _220  and  _221
REMARK   87  A    between atoms: _220  and  _223
REMARK   88  A    between atoms: _223  and  _224
REMARK   89  A    between atoms: _226  and  _228
REMARK   90  A    between atoms: _228  and  _229
REMARK   91  A    between atoms: _231  and  _233
REMARK   92  A    between atoms: _233  and  _234
REMARK   93  A    between atoms: _233  and  _236
REMARK   94  A    between atoms: _236  and  _237
REMARK   95  A    between atoms: _237  and  _238
REMARK   96  A    between atoms: _240  and  _242
REMARK   97  A    between atoms: _242  and  _243
REMARK   98  A    between atoms: _242  and  _245
REMARK   99  A    between atoms: _245  and  _246
REMARK  100  A    between atoms: _249  and  _251
REMARK  101  A    between atoms: _251  and  _252
REMARK  102  A    between atoms: _251  and  _254
REMARK  103  A    between atoms: _254  and  _255
REMARK  104  A    between atoms: _255  and  _256
REMARK  105  A    between atoms: _256  and  _257
REMARK  106  A    between atoms: _257  and  _258
REMARK  107  A    between atoms: _262  and  _264
REMARK  108  A    between atoms: _264  and  _265
REMARK  109  A    between atoms: _264  and  _267
REMARK  110  A    between atoms: _270  and  _272
REMARK  111  A    between atoms: _272  and  _273
REMARK  112  A    between atoms: _272  and  _275
REMARK  113  A    between atoms: _275  and  _276
REMARK  114  A    between atoms: _278  and  _280
REMARK  115  A    between atoms: _280  and  _281
REMARK  116  A    between atoms: _280  and  _283
REMARK  117  A    between atoms: _286  and  _288
REMARK  118  A    between atoms: _288  and  _289
REMARK  119  A    between atoms: _291  and  _293
REMARK  120  A    between atoms: _293  and  _294
REMARK  121  A    between atoms: _297  and  _299
REMARK  122  A    between atoms: _299  and  _300
REMARK  123  A    between atoms: _299  and  _302
REMARK  124  A    between atoms: _302  and  _303
REMARK  125  A    between atoms: _306  and  _308
REMARK  126  A    between atoms: _308  and  _309
REMARK  127  A    between atoms: _308  and  _311
REMARK  128  A    between atoms: _314  and  _316
REMARK  129  A    between atoms: _316  and  _317
REMARK  130  A    between atoms: _316  and  _319
REMARK  131  A    between atoms: _319  and  _320
REMARK  132  A    between atoms: _323  and  _325
REMARK  133  A    between atoms: _325  and  _326
REMARK  134  A    between atoms: _329  and  _331
REMARK  135  A    between atoms: _331  and  _332
REMARK  136  A    between atoms: _331  and  _334
REMARK  137  A    between atoms: _334  and  _335
REMARK  138  A    between atoms: _335  and  _336
REMARK  139  A    between atoms: _339  and  _341
REMARK  140  A    between atoms: _341  and  _342
REMARK  141  A    between atoms: _341  and  _344
REMARK  142  A    between atoms: _344  and  _345
REMARK  143  A    between atoms: _345  and  _346
REMARK  144  A    between atoms: _349  and  _351
REMARK  145  A    between atoms: _351  and  _352
REMARK  146  A    between atoms: _351  and  _354
REMARK  147  A    between atoms: _354  and  _355
REMARK  148  A    between atoms: _358  and  _360
REMARK  149  A    between atoms: _360  and  _361
REMARK  150  A    between atoms: _360  and  _363
REMARK  151  A    between atoms: _363  and  _364
REMARK  152  A    between atoms: _367  and  _369
REMARK  153  A    between atoms: _369  and  _370
REMARK  154  A    between atoms: _369  and  _372
REMARK  155  A    between atoms: _372  and  _373
REMARK  156  A    between atoms: _373  and  _374
REMARK  157  A    between atoms: _374  and  _375
REMARK  158  A    between atoms: _384  and  _386
REMARK  159  A    between atoms: _386  and  _387
REMARK  160  A    between atoms: _386  and  _389
REMARK  161  A    between atoms: _389  and  _390
REMARK  162  A    between atoms: _393  and  _395
REMARK  163  A    between atoms: _395  and  _396
REMARK  164  A    between atoms: _400  and  _401
REMARK  165  A    between atoms: _406  and  _408
REMARK  166  A    between atoms: _408  and  _409
REMARK  167  A    between atoms: _408  and  _411
REMARK  168  A    between atoms: _411  and  _412
REMARK  169  A    between atoms: _418  and  _419
REMARK  170  A    between atoms: _424  and  _426
REMARK  171  A    between atoms: _426  and  _427
REMARK  172  A    between atoms: _426  and  _429
REMARK  173  A    between atoms: _429  and  _430
REMARK  174  A    between atoms: _433  and  _435
REMARK  175  A    between atoms: _435  and  _436
REMARK  176  A    between atoms: _435  and  _438
REMARK  177  A    between atoms: _438  and  _439
REMARK  178  A    between atoms: _442  and  _444
REMARK  179  A    between atoms: _444  and  _445
REMARK  180  A    between atoms: _444  and  _447
REMARK  181  A    between atoms: _447  and  _448
REMARK  182  A    between atoms: _448  and  _449
REMARK  183  A    between atoms: _451  and  _453
REMARK  184  A    between atoms: _453  and  _454
REMARK  185  A    between atoms: _453  and  _456
REMARK  186  A    between atoms: _456  and  _457
REMARK  187  A    between atoms: _457  and  _458
REMARK  188  A    between atoms: _461  and  _463
REMARK  189  A    between atoms: _463  and  _464
REMARK  190  A    between atoms: _463  and  _466
REMARK  191  A    between atoms: _466  and  _467
REMARK  192  A    between atoms: _470  and  _472
REMARK  193  A    between atoms: _472  and  _473
REMARK  194  A    between atoms: _472  and  _475
REMARK  195  A    between atoms: _478  and  _480
REMARK  196  A    between atoms: _480  and  _481
REMARK  197  A    between atoms: _480  and  _483
REMARK  198  A    between atoms: _483  and  _484
REMARK  199  A    between atoms: _490  and  _492
REMARK  200  A    between atoms: _492  and  _493
REMARK  201  A    between atoms: _492  and  _495
REMARK  202  A    between atoms: _495  and  _496
REMARK  203  A    between atoms: _496  and  _497
REMARK  204  A    between atoms: _500  and  _502
REMARK  205  A    between atoms: _502  and  _503
REMARK  206  A    between atoms: _502  and  _505
REMARK  207  A    between atoms: _505  and  _506
REMARK  208  A    between atoms: _511  and  _513
REMARK  209  A    between atoms: _513  and  _514
REMARK  210  A    between atoms: _513  and  _516
REMARK  211  A    between atoms: _516  and  _517
REMARK  212  A    between atoms: _517  and  _518
REMARK  213  A    between atoms: _518  and  _519
REMARK  214  A    between atoms: _528  and  _530
REMARK  215  A    between atoms: _530  and  _531
REMARK  216  A    between atoms: _530  and  _533
REMARK  217  A    between atoms: _533  and  _534
REMARK  218  A    between atoms: _537  and  _539
REMARK  219  A    between atoms: _539  and  _540
REMARK  220  A    between atoms: _539  and  _542
REMARK  221  A    between atoms: _542  and  _543
REMARK  222  A    between atoms: _546  and  _548
REMARK  223  A    between atoms: _548  and  _549
REMARK  224  A    between atoms: _548  and  _551
REMARK  225  A    between atoms: _551  and  _552
REMARK  226  A    between atoms: _552  and  _553
REMARK  227  A    between atoms: _553  and  _554
REMARK  228  A    between atoms: _563  and  _565
REMARK  229  A    between atoms: _565  and  _566
REMARK  230  A    between atoms: _569  and  _571
REMARK  231  A    between atoms: _571  and  _572
REMARK  232  A    between atoms: _571  and  _574
REMARK  233  A    between atoms: _574  and  _575
REMARK  234  A    between atoms: _575  and  _576
REMARK  235  A    between atoms: _576  and  _577
REMARK  236  A    between atoms: _586  and  _588
REMARK  237  A    between atoms: _588  and  _589
REMARK                            x       y       z     vdW  Elec       q    Type
REMARK                         _______ _______ _______ _____ _____    ______ ____
ROOT
ATOM      1  O   HOH     1      -9.744   1.896   4.730  0.00  0.00    +0.000 OA
ENDROOT
TORSDOF 0
REMARK  Name = ../refined-set-2016/3iss/3iss_pocket.pdb
REMARK  237 active torsions:
REMARK  status: ('A' for Active; 'I' for Inactive)
REMARK    1  A    between atoms: _1  and  _3
REMARK    2  A    between atoms: _3  and  _4
REMARK    3  A    between atoms: _3  and  _6
REMARK    4  A    between atoms: _6  and  _7
REMARK    5  A    between atoms: _7  and  _8
REMARK    6  A    between atoms: _8  and  _9
REMARK    7  A    between atoms: _9  and  _10
REMARK    8  A    between atoms: _14  and  _16
REMARK    9  A    between atoms: _16  and  _17
REMARK   10  A    between atoms: _16  and  _19
REMARK   11  A    between atoms: _19  and  _20
REMARK   12  A    between atoms: _25  and  _27
REMARK   13  A    between atoms: _27  and  _28
REMARK   14  A    between atoms: _31  and  _33
REMARK   15  A    between atoms: _33  and  _34
REMARK   16  A    between atoms: _33  and  _36
REMARK   17  A    between atoms: _36  and  _37
REMARK   18  A    between atoms: _41  and  _42
REMARK   19  A    between atoms: _47  and  _49
REMARK   20  A    between atoms: _49  and  _50
REMARK   21  A    between atoms: _49  and  _52
REMARK   22  A    between atoms: _52  and  _53
REMARK   23  A    between atoms: _56  and  _58
REMARK   24  A    between atoms: _58  and  _59
REMARK   25  A    between atoms: _58  and  _61
REMARK   26  A    between atoms: _61  and  _62
REMARK   27  A    between atoms: _62  and  _63
REMARK   28  A    between atoms: _65  and  _67
REMARK   29  A    between atoms: _67  and  _68
REMARK   30  A    between atoms: _67  and  _70
REMARK   31  A    between atoms: _70  and  _71
REMARK   32  A    between atoms: _71  and  _72
REMARK   33  A    between atoms: _72  and  _73
REMARK   34  A    between atoms: _82  and  _84
REMARK   35  A    between atoms: _84  and  _85
REMARK   36  A    between atoms: _88  and  _90
REMARK   37  A    between atoms: _90  and  _91
REMARK   38  A    between atoms: _90  and  _93
REMARK   39  A    between atoms: _93  and  _94
REMARK   40  A    between atoms: _96  and  _98
REMARK   41  A    between atoms: _98  and  _99
REMARK   42  A    between atoms: _98  and  _101
REMARK   43  A    between atoms: _101  and  _102
REMARK   44  A    between atoms: _105  and  _107
REMARK   45  A    between atoms: _107  and  _108
REMARK   46  A    between atoms: _107  and  _110
REMARK   47  A    between atoms: _110  and  _111
REMARK   48  A    between atoms: _121  and  _123
REMARK   49  A    between atoms: _123  and  _124
REMARK   50  A    between atoms: _123  and  _126
REMARK   51  A    between atoms: _128  and  _130
REMARK   52  A    between atoms: _130  and  _131
REMARK   53  A    between atoms: _130  and  _133
REMARK   54  A    between atoms: _133  and  _134
REMARK   55  A    between atoms: _137  and  _139
REMARK   56  A    between atoms: _139  and  _140
REMARK   57  A    between atoms: _142  and  _144
REMARK   58  A    between atoms: _144  and  _145
REMARK   59  A    between atoms: _148  and  _150
REMARK   60  A    between atoms: _150  and  _151
REMARK   61  A    between atoms: _150  and  _153
REMARK   62  A    between atoms: _153  and  _154
REMARK   63  A    between atoms: _154  and  _155
REMARK   64  A    between atoms: _155  and  _156
REMARK   65  A    between atoms: _166  and  _167
REMARK   66  A    between atoms: _172  and  _174
REMARK   67  A    between atoms: _174  and  _175
REMARK   68  A    between atoms: _174  and  _177
REMARK   69  A    between atoms: _180  and  _182
REMARK   70  A    between atoms: _182  and  _183
REMARK   71  A    between atoms: _182  and  _185
REMARK   72  A    between atoms: _185  and  _186
REMARK   73  A    between atoms: _189  and  _191
REMARK   74  A    between atoms: _191  and  _192
REMARK   75  A    between atoms: _191  and  _194
REMARK   76  A    between atoms: _194  and  _195
REMARK   77  A    between atoms: _198  and  _200
REMARK   78  A    between atoms: _200  and  _201
REMARK   79  A    between atoms: _200  and  _203
REMARK   80  A    between atoms: _203  and  _204
REMARK   81  A    between atoms: _209  and  _211
REMARK   82  A    between atoms: _211  and  _212
REMARK   83  A    between atoms: _211  and  _214
REMARK   84  A    between atoms: _214  and  _215
REMARK   85  A    between atoms: _218  and  _220
REMARK   86  A    between atoms: _220  and  _221
REMARK   87  A    between atoms: _220  and  _223
REMARK   88  A    between atoms: _223  and  _224
REMARK   89  A    between atoms: _226  and  _228
REMARK   90  A    between atoms: _228  and  _229
REMARK   91  A    between atoms: _231  and  _233
REMARK   92  A    between atoms: _233  and  _234
REMARK   93  A    between atoms: _233  and  _236
REMARK   94  A    between atoms: _236  and  _237
REMARK   95  A    between atoms: _237  and  _238
REMARK   96  A    between atoms: _240  and  _242
REMARK   97  A    between atoms: _242  and  _243
REMARK   98  A    between atoms: _242  and  _245
REMARK   99  A    between atoms: _245  and  _246
REMARK  100  A    between atoms: _249  and  _251
REMARK  101  A    between atoms: _251  and  _252
REMARK  102  A    between atoms: _251  and  _254
REMARK  103  A    between atoms: _254  and  _255
REMARK  104  A    between atoms: _255  and  _256
REMARK  105  A    between atoms: _256  and  _257
REMARK  106  A    between atoms: _257  and  _258
REMARK  107  A    between atoms: _262  and  _264
REMARK  108  A    between atoms: _264  and  _265
REMARK  109  A    between atoms: _264  and  _267
REMARK  110  A    between atoms: _270  and  _272
REMARK  111  A    between atoms: _272  and  _273
REMARK  112  A    between atoms: _272  and  _275
REMARK  113  A    between atoms: _275  and  _276
REMARK  114  A    between atoms: _278  and  _280
REMARK  115  A    between atoms: _280  and  _281
REMARK  116  A    between atoms: _280  and  _283
REMARK  117  A    between atoms: _286  and  _288
REMARK  118  A    between atoms: _288  and  _289
REMARK  119  A    between atoms: _291  and  _293
REMARK  120  A    between atoms: _293  and  _294
REMARK  121  A    between atoms: _297  and  _299
REMARK  122  A    between atoms: _299  and  _300
REMARK  123  A    between atoms: _299  and  _302
REMARK  124  A    between atoms: _302  and  _303
REMARK  125  A    between atoms: _306  and  _308
REMARK  126  A    between atoms: _308  and  _309
REMARK  127  A    between atoms: _308  and  _311
REMARK  128  A    between atoms: _314  and  _316
REMARK  129  A    between atoms: _316  and  _317
REMARK  130  A    between atoms: _316  and  _319
REMARK  131  A    between atoms: _319  and  _320
REMARK  132  A    between atoms: _323  and  _325
REMARK  133  A    between atoms: _325  and  _326
REMARK  134  A    between atoms: _329  and  _331
REMARK  135  A    between atoms: _331  and  _332
REMARK  136  A    between atoms: _331  and  _334
REMARK  137  A    between atoms: _334  and  _335
REMARK  138  A    between atoms: _335  and  _336
REMARK  139  A    between atoms: _339  and  _341
REMARK  140  A    between atoms: _341  and  _342
REMARK  141  A    between atoms: _341  and  _344
REMARK  142  A    between atoms: _344  and  _345
REMARK  143  A    between atoms: _345  and  _346
REMARK  144  A    between atoms: _349  and  _351
REMARK  145  A    between atoms: _351  and  _352
REMARK  146  A    between atoms: _351  and  _354
REMARK  147  A    between atoms: _354  and  _355
REMARK  148  A    between atoms: _358  and  _360
REMARK  149  A    between atoms: _360  and  _361
REMARK  150  A    between atoms: _360  and  _363
REMARK  151  A    between atoms: _363  and  _364
REMARK  152  A    between atoms: _367  and  _369
REMARK  153  A    between atoms: _369  and  _370
REMARK  154  A    between atoms: _369  and  _372
REMARK  155  A    between atoms: _372  and  _373
REMARK  156  A    between atoms: _373  and  _374
REMARK  157  A    between atoms: _374  and  _375
REMARK  158  A    between atoms: _384  and  _386
REMARK  159  A    between atoms: _386  and  _387
REMARK  160  A    between atoms: _386  and  _389
REMARK  161  A    between atoms: _389  and  _390
REMARK  162  A    between atoms: _393  and  _395
REMARK  163  A    between atoms: _395  and  _396
REMARK  164  A    between atoms: _400  and  _401
REMARK  165  A    between atoms: _406  and  _408
REMARK  166  A    between atoms: _408  and  _409
REMARK  167  A    between atoms: _408  and  _411
REMARK  168  A    between atoms: _411  and  _412
REMARK  169  A    between atoms: _418  and  _419
REMARK  170  A    between atoms: _424  and  _426
REMARK  171  A    between atoms: _426  and  _427
REMARK  172  A    between atoms: _426  and  _429
REMARK  173  A    between atoms: _429  and  _430
REMARK  174  A    between atoms: _433  and  _435
REMARK  175  A    between atoms: _435  and  _436
REMARK  176  A    between atoms: _435  and  _438
REMARK  177  A    between atoms: _438  and  _439
REMARK  178  A    between atoms: _442  and  _444
REMARK  179  A    between atoms: _444  and  _445
REMARK  180  A    between atoms: _444  and  _447
REMARK  181  A    between atoms: _447  and  _448
REMARK  182  A    between atoms: _448  and  _449
REMARK  183  A    between atoms: _451  and  _453
REMARK  184  A    between atoms: _453  and  _454
REMARK  185  A    between atoms: _453  and  _456
REMARK  186  A    between atoms: _456  and  _457
REMARK  187  A    between atoms: _457  and  _458
REMARK  188  A    between atoms: _461  and  _463
REMARK  189  A    between atoms: _463  and  _464
REMARK  190  A    between atoms: _463  and  _466
REMARK  191  A    between atoms: _466  and  _467
REMARK  192  A    between atoms: _470  and  _472
REMARK  193  A    between atoms: _472  and  _473
REMARK  194  A    between atoms: _472  and  _475
REMARK  195  A    between atoms: _478  and  _480
REMARK  196  A    between atoms: _480  and  _481
REMARK  197  A    between atoms: _480  and  _483
REMARK  198  A    between atoms: _483  and  _484
REMARK  199  A    between atoms: _490  and  _492
REMARK  200  A    between atoms: _492  and  _493
REMARK  201  A    between atoms: _492  and  _495
REMARK  202  A    between atoms: _495  and  _496
REMARK  203  A    between atoms: _496  and  _497
REMARK  204  A    between atoms: _500  and  _502
REMARK  205  A    between atoms: _502  and  _503
REMARK  206  A    between atoms: _502  and  _505
REMARK  207  A    between atoms: _505  and  _506
REMARK  208  A    between atoms: _511  and  _513
REMARK  209  A    between atoms: _513  and  _514
REMARK  210  A    between atoms: _513  and  _516
REMARK  211  A    between atoms: _516  and  _517
REMARK  212  A    between atoms: _517  and  _518
REMARK  213  A    between atoms: _518  and  _519
REMARK  214  A    between atoms: _528  and  _530
REMARK  215  A    between atoms: _530  and  _531
REMARK  216  A    between atoms: _530  and  _533
REMARK  217  A    between atoms: _533  and  _534
REMARK  218  A    between atoms: _537  and  _539
REMARK  219  A    between atoms: _539  and  _540
REMARK  220  A    between atoms: _539  and  _542
REMARK  221  A    between atoms: _542  and  _543
REMARK  222  A    between atoms: _546  and  _548
REMARK  223  A    between atoms: _548  and  _549
REMARK  224  A    between atoms: _548  and  _551
REMARK  225  A    between atoms: _551  and  _552
REMARK  226  A    between atoms: _552  and  _553
REMARK  227  A    between atoms: _553  and  _554
REMARK  228  A    between atoms: _563  and  _565
REMARK  229  A    between atoms: _565  and  _566
REMARK  230  A    between atoms: _569  and  _571
REMARK  231  A    between atoms: _571  and  _572
REMARK  232  A    between atoms: _571  and  _574
REMARK  233  A    between atoms: _574  and  _575
REMARK  234  A    between atoms: _575  and  _576
REMARK  235  A    between atoms: _576  and  _577
REMARK  236  A    between atoms: _586  and  _588
REMARK  237  A    between atoms: _588  and  _589
REMARK                            x       y       z     vdW  Elec       q    Type
REMARK                         _______ _______ _______ _____ _____    ______ ____
ROOT
ATOM      1  O   HOH     1     -11.422  -9.411  -7.506  0.00  0.00    +0.000 OA
ENDROOT
TORSDOF 0
REMARK  Name = ../refined-set-2016/3iss/3iss_pocket.pdb
REMARK  237 active torsions:
REMARK  status: ('A' for Active; 'I' for Inactive)
REMARK    1  A    between atoms: _1  and  _3
REMARK    2  A    between atoms: _3  and  _4
REMARK    3  A    between atoms: _3  and  _6
REMARK    4  A    between atoms: _6  and  _7
REMARK    5  A    between atoms: _7  and  _8
REMARK    6  A    between atoms: _8  and  _9
REMARK    7  A    between atoms: _9  and  _10
REMARK    8  A    between atoms: _14  and  _16
REMARK    9  A    between atoms: _16  and  _17
REMARK   10  A    between atoms: _16  and  _19
REMARK   11  A    between atoms: _19  and  _20
REMARK   12  A    between atoms: _25  and  _27
REMARK   13  A    between atoms: _27  and  _28
REMARK   14  A    between atoms: _31  and  _33
REMARK   15  A    between atoms: _33  and  _34
REMARK   16  A    between atoms: _33  and  _36
REMARK   17  A    between atoms: _36  and  _37
REMARK   18  A    between atoms: _41  and  _42
REMARK   19  A    between atoms: _47  and  _49
REMARK   20  A    between atoms: _49  and  _50
REMARK   21  A    between atoms: _49  and  _52
REMARK   22  A    between atoms: _52  and  _53
REMARK   23  A    between atoms: _56  and  _58
REMARK   24  A    between atoms: _58  and  _59
REMARK   25  A    between atoms: _58  and  _61
REMARK   26  A    between atoms: _61  and  _62
REMARK   27  A    between atoms: _62  and  _63
REMARK   28  A    between atoms: _65  and  _67
REMARK   29  A    between atoms: _67  and  _68
REMARK   30  A    between atoms: _67  and  _70
REMARK   31  A    between atoms: _70  and  _71
REMARK   32  A    between atoms: _71  and  _72
REMARK   33  A    between atoms: _72  and  _73
REMARK   34  A    between atoms: _82  and  _84
REMARK   35  A    between atoms: _84  and  _85
REMARK   36  A    between atoms: _88  and  _90
REMARK   37  A    between atoms: _90  and  _91
REMARK   38  A    between atoms: _90  and  _93
REMARK   39  A    between atoms: _93  and  _94
REMARK   40  A    between atoms: _96  and  _98
REMARK   41  A    between atoms: _98  and  _99
REMARK   42  A    between atoms: _98  and  _101
REMARK   43  A    between atoms: _101  and  _102
REMARK   44  A    between atoms: _105  and  _107
REMARK   45  A    between atoms: _107  and  _108
REMARK   46  A    between atoms: _107  and  _110
REMARK   47  A    between atoms: _110  and  _111
REMARK   48  A    between atoms: _121  and  _123
REMARK   49  A    between atoms: _123  and  _124
REMARK   50  A    between atoms: _123  and  _126
REMARK   51  A    between atoms: _128  and  _130
REMARK   52  A    between atoms: _130  and  _131
REMARK   53  A    between atoms: _130  and  _133
REMARK   54  A    between atoms: _133  and  _134
REMARK   55  A    between atoms: _137  and  _139
REMARK   56  A    between atoms: _139  and  _140
REMARK   57  A    between atoms: _142  and  _144
REMARK   58  A    between atoms: _144  and  _145
REMARK   59  A    between atoms: _148  and  _150
REMARK   60  A    between atoms: _150  and  _151
REMARK   61  A    between atoms: _150  and  _153
REMARK   62  A    between atoms: _153  and  _154
REMARK   63  A    between atoms: _154  and  _155
REMARK   64  A    between atoms: _155  and  _156
REMARK   65  A    between atoms: _166  and  _167
REMARK   66  A    between atoms: _172  and  _174
REMARK   67  A    between atoms: _174  and  _175
REMARK   68  A    between atoms: _174  and  _177
REMARK   69  A    between atoms: _180  and  _182
REMARK   70  A    between atoms: _182  and  _183
REMARK   71  A    between atoms: _182  and  _185
REMARK   72  A    between atoms: _185  and  _186
REMARK   73  A    between atoms: _189  and  _191
REMARK   74  A    between atoms: _191  and  _192
REMARK   75  A    between atoms: _191  and  _194
REMARK   76  A    between atoms: _194  and  _195
REMARK   77  A    between atoms: _198  and  _200
REMARK   78  A    between atoms: _200  and  _201
REMARK   79  A    between atoms: _200  and  _203
REMARK   80  A    between atoms: _203  and  _204
REMARK   81  A    between atoms: _209  and  _211
REMARK   82  A    between atoms: _211  and  _212
REMARK   83  A    between atoms: _211  and  _214
REMARK   84  A    between atoms: _214  and  _215
REMARK   85  A    between atoms: _218  and  _220
REMARK   86  A    between atoms: _220  and  _221
REMARK   87  A    between atoms: _220  and  _223
REMARK   88  A    between atoms: _223  and  _224
REMARK   89  A    between atoms: _226  and  _228
REMARK   90  A    between atoms: _228  and  _229
REMARK   91  A    between atoms: _231  and  _233
REMARK   92  A    between atoms: _233  and  _234
REMARK   93  A    between atoms: _233  and  _236
REMARK   94  A    between atoms: _236  and  _237
REMARK   95  A    between atoms: _237  and  _238
REMARK   96  A    between atoms: _240  and  _242
REMARK   97  A    between atoms: _242  and  _243
REMARK   98  A    between atoms: _242  and  _245
REMARK   99  A    between atoms: _245  and  _246
REMARK  100  A    between atoms: _249  and  _251
REMARK  101  A    between atoms: _251  and  _252
REMARK  102  A    between atoms: _251  and  _254
REMARK  103  A    between atoms: _254  and  _255
REMARK  104  A    between atoms: _255  and  _256
REMARK  105  A    between atoms: _256  and  _257
REMARK  106  A    between atoms: _257  and  _258
REMARK  107  A    between atoms: _262  and  _264
REMARK  108  A    between atoms: _264  and  _265
REMARK  109  A    between atoms: _264  and  _267
REMARK  110  A    between atoms: _270  and  _272
REMARK  111  A    between atoms: _272  and  _273
REMARK  112  A    between atoms: _272  and  _275
REMARK  113  A    between atoms: _275  and  _276
REMARK  114  A    between atoms: _278  and  _280
REMARK  115  A    between atoms: _280  and  _281
REMARK  116  A    between atoms: _280  and  _283
REMARK  117  A    between atoms: _286  and  _288
REMARK  118  A    between atoms: _288  and  _289
REMARK  119  A    between atoms: _291  and  _293
REMARK  120  A    between atoms: _293  and  _294
REMARK  121  A    between atoms: _297  and  _299
REMARK  122  A    between atoms: _299  and  _300
REMARK  123  A    between atoms: _299  and  _302
REMARK  124  A    between atoms: _302  and  _303
REMARK  125  A    between atoms: _306  and  _308
REMARK  126  A    between atoms: _308  and  _309
REMARK  127  A    between atoms: _308  and  _311
REMARK  128  A    between atoms: _314  and  _316
REMARK  129  A    between atoms: _316  and  _317
REMARK  130  A    between atoms: _316  and  _319
REMARK  131  A    between atoms: _319  and  _320
REMARK  132  A    between atoms: _323  and  _325
REMARK  133  A    between atoms: _325  and  _326
REMARK  134  A    between atoms: _329  and  _331
REMARK  135  A    between atoms: _331  and  _332
REMARK  136  A    between atoms: _331  and  _334
REMARK  137  A    between atoms: _334  and  _335
REMARK  138  A    between atoms: _335  and  _336
REMARK  139  A    between atoms: _339  and  _341
REMARK  140  A    between atoms: _341  and  _342
REMARK  141  A    between atoms: _341  and  _344
REMARK  142  A    between atoms: _344  and  _345
REMARK  143  A    between atoms: _345  and  _346
REMARK  144  A    between atoms: _349  and  _351
REMARK  145  A    between atoms: _351  and  _352
REMARK  146  A    between atoms: _351  and  _354
REMARK  147  A    between atoms: _354  and  _355
REMARK  148  A    between atoms: _358  and  _360
REMARK  149  A    between atoms: _360  and  _361
REMARK  150  A    between atoms: _360  and  _363
REMARK  151  A    between atoms: _363  and  _364
REMARK  152  A    between atoms: _367  and  _369
REMARK  153  A    between atoms: _369  and  _370
REMARK  154  A    between atoms: _369  and  _372
REMARK  155  A    between atoms: _372  and  _373
REMARK  156  A    between atoms: _373  and  _374
REMARK  157  A    between atoms: _374  and  _375
REMARK  158  A    between atoms: _384  and  _386
REMARK  159  A    between atoms: _386  and  _387
REMARK  160  A    between atoms: _386  and  _389
REMARK  161  A    between atoms: _389  and  _390
REMARK  162  A    between atoms: _393  and  _395
REMARK  163  A    between atoms: _395  and  _396
REMARK  164  A    between atoms: _400  and  _401
REMARK  165  A    between atoms: _406  and  _408
REMARK  166  A    between atoms: _408  and  _409
REMARK  167  A    between atoms: _408  and  _411
REMARK  168  A    between atoms: _411  and  _412
REMARK  169  A    between atoms: _418  and  _419
REMARK  170  A    between atoms: _424  and  _426
REMARK  171  A    between atoms: _426  and  _427
REMARK  172  A    between atoms: _426  and  _429
REMARK  173  A    between atoms: _429  and  _430
REMARK  174  A    between atoms: _433  and  _435
REMARK  175  A    between atoms: _435  and  _436
REMARK  176  A    between atoms: _435  and  _438
REMARK  177  A    between atoms: _438  and  _439
REMARK  178  A    between atoms: _442  and  _444
REMARK  179  A    between atoms: _444  and  _445
REMARK  180  A    between atoms: _444  and  _447
REMARK  181  A    between atoms: _447  and  _448
REMARK  182  A    between atoms: _448  and  _449
REMARK  183  A    between atoms: _451  and  _453
REMARK  184  A    between atoms: _453  and  _454
REMARK  185  A    between atoms: _453  and  _456
REMARK  186  A    between atoms: _456  and  _457
REMARK  187  A    between atoms: _457  and  _458
REMARK  188  A    between atoms: _461  and  _463
REMARK  189  A    between atoms: _463  and  _464
REMARK  190  A    between atoms: _463  and  _466
REMARK  191  A    between atoms: _466  and  _467
REMARK  192  A    between atoms: _470  and  _472
REMARK  193  A    between atoms: _472  and  _473
REMARK  194  A    between atoms: _472  and  _475
REMARK  195  A    between atoms: _478  and  _480
REMARK  196  A    between atoms: _480  and  _481
REMARK  197  A    between atoms: _480  and  _483
REMARK  198  A    between atoms: _483  and  _484
REMARK  199  A    between atoms: _490  and  _492
REMARK  200  A    between atoms: _492  and  _493
REMARK  201  A    between atoms: _492  and  _495
REMARK  202  A    between atoms: _495  and  _496
REMARK  203  A    between atoms: _496  and  _497
REMARK  204  A    between atoms: _500  and  _502
REMARK  205  A    between atoms: _502  and  _503
REMARK  206  A    between atoms: _502  and  _505
REMARK  207  A    between atoms: _505  and  _506
REMARK  208  A    between atoms: _511  and  _513
REMARK  209  A    between atoms: _513  and  _514
REMARK  210  A    between atoms: _513  and  _516
REMARK  211  A    between atoms: _516  and  _517
REMARK  212  A    between atoms: _517  and  _518
REMARK  213  A    between atoms: _518  and  _519
REMARK  214  A    between atoms: _528  and  _530
REMARK  215  A    between atoms: _530  and  _531
REMARK  216  A    between atoms: _530  and  _533
REMARK  217  A    between atoms: _533  and  _534
REMARK  218  A    between atoms: _537  and  _539
REMARK  219  A    between atoms: _539  and  _540
REMARK  220  A    between atoms: _539  and  _542
REMARK  221  A    between atoms: _542  and  _543
REMARK  222  A    between atoms: _546  and  _548
REMARK  223  A    between atoms: _548  and  _549
REMARK  224  A    between atoms: _548  and  _551
REMARK  225  A    between atoms: _551  and  _552
REMARK  226  A    between atoms: _552  and  _553
REMARK  227  A    between atoms: _553  and  _554
REMARK  228  A    between atoms: _563  and  _565
REMARK  229  A    between atoms: _565  and  _566
REMARK  230  A    between atoms: _569  and  _571
REMARK  231  A    between atoms: _571  and  _572
REMARK  232  A    between atoms: _571  and  _574
REMARK  233  A    between atoms: _574  and  _575
REMARK  234  A    between atoms: _575  and  _576
REMARK  235  A    between atoms: _576  and  _577
REMARK  236  A    between atoms: _586  and  _588
REMARK  237  A    between atoms: _588  and  _589
REMARK                            x       y       z     vdW  Elec       q    Type
REMARK                         _______ _______ _______ _____ _____    ______ ____
ROOT
ATOM      1  O   HOH     1       1.097  -2.872  -7.925  0.00  0.00    +0.000 OA
ENDROOT
TORSDOF 0
REMARK  Name = ../refined-set-2016/3iss/3iss_pocket.pdb
REMARK  237 active torsions:
REMARK  status: ('A' for Active; 'I' for Inactive)
REMARK    1  A    between atoms: _1  and  _3
REMARK    2  A    between atoms: _3  and  _4
REMARK    3  A    between atoms: _3  and  _6
REMARK    4  A    between atoms: _6  and  _7
REMARK    5  A    between atoms: _7  and  _8
REMARK    6  A    between atoms: _8  and  _9
REMARK    7  A    between atoms: _9  and  _10
REMARK    8  A    between atoms: _14  and  _16
REMARK    9  A    between atoms: _16  and  _17
REMARK   10  A    between atoms: _16  and  _19
REMARK   11  A    between atoms: _19  and  _20
REMARK   12  A    between atoms: _25  and  _27
REMARK   13  A    between atoms: _27  and  _28
REMARK   14  A    between atoms: _31  and  _33
REMARK   15  A    between atoms: _33  and  _34
REMARK   16  A    between atoms: _33  and  _36
REMARK   17  A    between atoms: _36  and  _37
REMARK   18  A    between atoms: _41  and  _42
REMARK   19  A    between atoms: _47  and  _49
REMARK   20  A    between atoms: _49  and  _50
REMARK   21  A    between atoms: _49  and  _52
REMARK   22  A    between atoms: _52  and  _53
REMARK   23  A    between atoms: _56  and  _58
REMARK   24  A    between atoms: _58  and  _59
REMARK   25  A    between atoms: _58  and  _61
REMARK   26  A    between atoms: _61  and  _62
REMARK   27  A    between atoms: _62  and  _63
REMARK   28  A    between atoms: _65  and  _67
REMARK   29  A    between atoms: _67  and  _68
REMARK   30  A    between atoms: _67  and  _70
REMARK   31  A    between atoms: _70  and  _71
REMARK   32  A    between atoms: _71  and  _72
REMARK   33  A    between atoms: _72  and  _73
REMARK   34  A    between atoms: _82  and  _84
REMARK   35  A    between atoms: _84  and  _85
REMARK   36  A    between atoms: _88  and  _90
REMARK   37  A    between atoms: _90  and  _91
REMARK   38  A    between atoms: _90  and  _93
REMARK   39  A    between atoms: _93  and  _94
REMARK   40  A    between atoms: _96  and  _98
REMARK   41  A    between atoms: _98  and  _99
REMARK   42  A    between atoms: _98  and  _101
REMARK   43  A    between atoms: _101  and  _102
REMARK   44  A    between atoms: _105  and  _107
REMARK   45  A    between atoms: _107  and  _108
REMARK   46  A    between atoms: _107  and  _110
REMARK   47  A    between atoms: _110  and  _111
REMARK   48  A    between atoms: _121  and  _123
REMARK   49  A    between atoms: _123  and  _124
REMARK   50  A    between atoms: _123  and  _126
REMARK   51  A    between atoms: _128  and  _130
REMARK   52  A    between atoms: _130  and  _131
REMARK   53  A    between atoms: _130  and  _133
REMARK   54  A    between atoms: _133  and  _134
REMARK   55  A    between atoms: _137  and  _139
REMARK   56  A    between atoms: _139  and  _140
REMARK   57  A    between atoms: _142  and  _144
REMARK   58  A    between atoms: _144  and  _145
REMARK   59  A    between atoms: _148  and  _150
REMARK   60  A    between atoms: _150  and  _151
REMARK   61  A    between atoms: _150  and  _153
REMARK   62  A    between atoms: _153  and  _154
REMARK   63  A    between atoms: _154  and  _155
REMARK   64  A    between atoms: _155  and  _156
REMARK   65  A    between atoms: _166  and  _167
REMARK   66  A    between atoms: _172  and  _174
REMARK   67  A    between atoms: _174  and  _175
REMARK   68  A    between atoms: _174  and  _177
REMARK   69  A    between atoms: _180  and  _182
REMARK   70  A    between atoms: _182  and  _183
REMARK   71  A    between atoms: _182  and  _185
REMARK   72  A    between atoms: _185  and  _186
REMARK   73  A    between atoms: _189  and  _191
REMARK   74  A    between atoms: _191  and  _192
REMARK   75  A    between atoms: _191  and  _194
REMARK   76  A    between atoms: _194  and  _195
REMARK   77  A    between atoms: _198  and  _200
REMARK   78  A    between atoms: _200  and  _201
REMARK   79  A    between atoms: _200  and  _203
REMARK   80  A    between atoms: _203  and  _204
REMARK   81  A    between atoms: _209  and  _211
REMARK   82  A    between atoms: _211  and  _212
REMARK   83  A    between atoms: _211  and  _214
REMARK   84  A    between atoms: _214  and  _215
REMARK   85  A    between atoms: _218  and  _220
REMARK   86  A    between atoms: _220  and  _221
REMARK   87  A    between atoms: _220  and  _223
REMARK   88  A    between atoms: _223  and  _224
REMARK   89  A    between atoms: _226  and  _228
REMARK   90  A    between atoms: _228  and  _229
REMARK   91  A    between atoms: _231  and  _233
REMARK   92  A    between atoms: _233  and  _234
REMARK   93  A    between atoms: _233  and  _236
REMARK   94  A    between atoms: _236  and  _237
REMARK   95  A    between atoms: _237  and  _238
REMARK   96  A    between atoms: _240  and  _242
REMARK   97  A    between atoms: _242  and  _243
REMARK   98  A    between atoms: _242  and  _245
REMARK   99  A    between atoms: _245  and  _246
REMARK  100  A    between atoms: _249  and  _251
REMARK  101  A    between atoms: _251  and  _252
REMARK  102  A    between atoms: _251  and  _254
REMARK  103  A    between atoms: _254  and  _255
REMARK  104  A    between atoms: _255  and  _256
REMARK  105  A    between atoms: _256  and  _257
REMARK  106  A    between atoms: _257  and  _258
REMARK  107  A    between atoms: _262  and  _264
REMARK  108  A    between atoms: _264  and  _265
REMARK  109  A    between atoms: _264  and  _267
REMARK  110  A    between atoms: _270  and  _272
REMARK  111  A    between atoms: _272  and  _273
REMARK  112  A    between atoms: _272  and  _275
REMARK  113  A    between atoms: _275  and  _276
REMARK  114  A    between atoms: _278  and  _280
REMARK  115  A    between atoms: _280  and  _281
REMARK  116  A    between atoms: _280  and  _283
REMARK  117  A    between atoms: _286  and  _288
REMARK  118  A    between atoms: _288  and  _289
REMARK  119  A    between atoms: _291  and  _293
REMARK  120  A    between atoms: _293  and  _294
REMARK  121  A    between atoms: _297  and  _299
REMARK  122  A    between atoms: _299  and  _300
REMARK  123  A    between atoms: _299  and  _302
REMARK  124  A    between atoms: _302  and  _303
REMARK  125  A    between atoms: _306  and  _308
REMARK  126  A    between atoms: _308  and  _309
REMARK  127  A    between atoms: _308  and  _311
REMARK  128  A    between atoms: _314  and  _316
REMARK  129  A    between atoms: _316  and  _317
REMARK  130  A    between atoms: _316  and  _319
REMARK  131  A    between atoms: _319  and  _320
REMARK  132  A    between atoms: _323  and  _325
REMARK  133  A    between atoms: _325  and  _326
REMARK  134  A    between atoms: _329  and  _331
REMARK  135  A    between atoms: _331  and  _332
REMARK  136  A    between atoms: _331  and  _334
REMARK  137  A    between atoms: _334  and  _335
REMARK  138  A    between atoms: _335  and  _336
REMARK  139  A    between atoms: _339  and  _341
REMARK  140  A    between atoms: _341  and  _342
REMARK  141  A    between atoms: _341  and  _344
REMARK  142  A    between atoms: _344  and  _345
REMARK  143  A    between atoms: _345  and  _346
REMARK  144  A    between atoms: _349  and  _351
REMARK  145  A    between atoms: _351  and  _352
REMARK  146  A    between atoms: _351  and  _354
REMARK  147  A    between atoms: _354  and  _355
REMARK  148  A    between atoms: _358  and  _360
REMARK  149  A    between atoms: _360  and  _361
REMARK  150  A    between atoms: _360  and  _363
REMARK  151  A    between atoms: _363  and  _364
REMARK  152  A    between atoms: _367  and  _369
REMARK  153  A    between atoms: _369  and  _370
REMARK  154  A    between atoms: _369  and  _372
REMARK  155  A    between atoms: _372  and  _373
REMARK  156  A    between atoms: _373  and  _374
REMARK  157  A    between atoms: _374  and  _375
REMARK  158  A    between atoms: _384  and  _386
REMARK  159  A    between atoms: _386  and  _387
REMARK  160  A    between atoms: _386  and  _389
REMARK  161  A    between atoms: _389  and  _390
REMARK  162  A    between atoms: _393  and  _395
REMARK  163  A    between atoms: _395  and  _396
REMARK  164  A    between atoms: _400  and  _401
REMARK  165  A    between atoms: _406  and  _408
REMARK  166  A    between atoms: _408  and  _409
REMARK  167  A    between atoms: _408  and  _411
REMARK  168  A    between atoms: _411  and  _412
REMARK  169  A    between atoms: _418  and  _419
REMARK  170  A    between atoms: _424  and  _426
REMARK  171  A    between atoms: _426  and  _427
REMARK  172  A    between atoms: _426  and  _429
REMARK  173  A    between atoms: _429  and  _430
REMARK  174  A    between atoms: _433  and  _435
REMARK  175  A    between atoms: _435  and  _436
REMARK  176  A    between atoms: _435  and  _438
REMARK  177  A    between atoms: _438  and  _439
REMARK  178  A    between atoms: _442  and  _444
REMARK  179  A    between atoms: _444  and  _445
REMARK  180  A    between atoms: _444  and  _447
REMARK  181  A    between atoms: _447  and  _448
REMARK  182  A    between atoms: _448  and  _449
REMARK  183  A    between atoms: _451  and  _453
REMARK  184  A    between atoms: _453  and  _454
REMARK  185  A    between atoms: _453  and  _456
REMARK  186  A    between atoms: _456  and  _457
REMARK  187  A    between atoms: _457  and  _458
REMARK  188  A    between atoms: _461  and  _463
REMARK  189  A    between atoms: _463  and  _464
REMARK  190  A    between atoms: _463  and  _466
REMARK  191  A    between atoms: _466  and  _467
REMARK  192  A    between atoms: _470  and  _472
REMARK  193  A    between atoms: _472  and  _473
REMARK  194  A    between atoms: _472  and  _475
REMARK  195  A    between atoms: _478  and  _480
REMARK  196  A    between atoms: _480  and  _481
REMARK  197  A    between atoms: _480  and  _483
REMARK  198  A    between atoms: _483  and  _484
REMARK  199  A    between atoms: _490  and  _492
REMARK  200  A    between atoms: _492  and  _493
REMARK  201  A    between atoms: _492  and  _495
REMARK  202  A    between atoms: _495  and  _496
REMARK  203  A    between atoms: _496  and  _497
REMARK  204  A    between atoms: _500  and  _502
REMARK  205  A    between atoms: _502  and  _503
REMARK  206  A    between atoms: _502  and  _505
REMARK  207  A    between atoms: _505  and  _506
REMARK  208  A    between atoms: _511  and  _513
REMARK  209  A    between atoms: _513  and  _514
REMARK  210  A    between atoms: _513  and  _516
REMARK  211  A    between atoms: _516  and  _517
REMARK  212  A    between atoms: _517  and  _518
REMARK  213  A    between atoms: _518  and  _519
REMARK  214  A    between atoms: _528  and  _530
REMARK  215  A    between atoms: _530  and  _531
REMARK  216  A    between atoms: _530  and  _533
REMARK  217  A    between atoms: _533  and  _534
REMARK  218  A    between atoms: _537  and  _539
REMARK  219  A    between atoms: _539  and  _540
REMARK  220  A    between atoms: _539  and  _542
REMARK  221  A    between atoms: _542  and  _543
REMARK  222  A    between atoms: _546  and  _548
REMARK  223  A    between atoms: _548  and  _549
REMARK  224  A    between atoms: _548  and  _551
REMARK  225  A    between atoms: _551  and  _552
REMARK  226  A    between atoms: _552  and  _553
REMARK  227  A    between atoms: _553  and  _554
REMARK  228  A    between atoms: _563  and  _565
REMARK  229  A    between atoms: _565  and  _566
REMARK  230  A    between atoms: _569  and  _571
REMARK  231  A    between atoms: _571  and  _572
REMARK  232  A    between atoms: _571  and  _574
REMARK  233  A    between atoms: _574  and  _575
REMARK  234  A    between atoms: _575  and  _576
REMARK  235  A    between atoms: _576  and  _577
REMARK  236  A    between atoms: _586  and  _588
REMARK  237  A    between atoms: _588  and  _589
REMARK                            x       y       z     vdW  Elec       q    Type
REMARK                         _______ _______ _______ _____ _____    ______ ____
ROOT
ATOM      1  O   HOH     1      -3.353  -7.732   3.252  0.00  0.00    +0.000 OA
ENDROOT
TORSDOF 0
REMARK  Name = ../refined-set-2016/3iss/3iss_pocket.pdb
REMARK  237 active torsions:
REMARK  status: ('A' for Active; 'I' for Inactive)
REMARK    1  A    between atoms: _1  and  _3
REMARK    2  A    between atoms: _3  and  _4
REMARK    3  A    between atoms: _3  and  _6
REMARK    4  A    between atoms: _6  and  _7
REMARK    5  A    between atoms: _7  and  _8
REMARK    6  A    between atoms: _8  and  _9
REMARK    7  A    between atoms: _9  and  _10
REMARK    8  A    between atoms: _14  and  _16
REMARK    9  A    between atoms: _16  and  _17
REMARK   10  A    between atoms: _16  and  _19
REMARK   11  A    between atoms: _19  and  _20
REMARK   12  A    between atoms: _25  and  _27
REMARK   13  A    between atoms: _27  and  _28
REMARK   14  A    between atoms: _31  and  _33
REMARK   15  A    between atoms: _33  and  _34
REMARK   16  A    between atoms: _33  and  _36
REMARK   17  A    between atoms: _36  and  _37
REMARK   18  A    between atoms: _41  and  _42
REMARK   19  A    between atoms: _47  and  _49
REMARK   20  A    between atoms: _49  and  _50
REMARK   21  A    between atoms: _49  and  _52
REMARK   22  A    between atoms: _52  and  _53
REMARK   23  A    between atoms: _56  and  _58
REMARK   24  A    between atoms: _58  and  _59
REMARK   25  A    between atoms: _58  and  _61
REMARK   26  A    between atoms: _61  and  _62
REMARK   27  A    between atoms: _62  and  _63
REMARK   28  A    between atoms: _65  and  _67
REMARK   29  A    between atoms: _67  and  _68
REMARK   30  A    between atoms: _67  and  _70
REMARK   31  A    between atoms: _70  and  _71
REMARK   32  A    between atoms: _71  and  _72
REMARK   33  A    between atoms: _72  and  _73
REMARK   34  A    between atoms: _82  and  _84
REMARK   35  A    between atoms: _84  and  _85
REMARK   36  A    between atoms: _88  and  _90
REMARK   37  A    between atoms: _90  and  _91
REMARK   38  A    between atoms: _90  and  _93
REMARK   39  A    between atoms: _93  and  _94
REMARK   40  A    between atoms: _96  and  _98
REMARK   41  A    between atoms: _98  and  _99
REMARK   42  A    between atoms: _98  and  _101
REMARK   43  A    between atoms: _101  and  _102
REMARK   44  A    between atoms: _105  and  _107
REMARK   45  A    between atoms: _107  and  _108
REMARK   46  A    between atoms: _107  and  _110
REMARK   47  A    between atoms: _110  and  _111
REMARK   48  A    between atoms: _121  and  _123
REMARK   49  A    between atoms: _123  and  _124
REMARK   50  A    between atoms: _123  and  _126
REMARK   51  A    between atoms: _128  and  _130
REMARK   52  A    between atoms: _130  and  _131
REMARK   53  A    between atoms: _130  and  _133
REMARK   54  A    between atoms: _133  and  _134
REMARK   55  A    between atoms: _137  and  _139
REMARK   56  A    between atoms: _139  and  _140
REMARK   57  A    between atoms: _142  and  _144
REMARK   58  A    between atoms: _144  and  _145
REMARK   59  A    between atoms: _148  and  _150
REMARK   60  A    between atoms: _150  and  _151
REMARK   61  A    between atoms: _150  and  _153
REMARK   62  A    between atoms: _153  and  _154
REMARK   63  A    between atoms: _154  and  _155
REMARK   64  A    between atoms: _155  and  _156
REMARK   65  A    between atoms: _166  and  _167
REMARK   66  A    between atoms: _172  and  _174
REMARK   67  A    between atoms: _174  and  _175
REMARK   68  A    between atoms: _174  and  _177
REMARK   69  A    between atoms: _180  and  _182
REMARK   70  A    between atoms: _182  and  _183
REMARK   71  A    between atoms: _182  and  _185
REMARK   72  A    between atoms: _185  and  _186
REMARK   73  A    between atoms: _189  and  _191
REMARK   74  A    between atoms: _191  and  _192
REMARK   75  A    between atoms: _191  and  _194
REMARK   76  A    between atoms: _194  and  _195
REMARK   77  A    between atoms: _198  and  _200
REMARK   78  A    between atoms: _200  and  _201
REMARK   79  A    between atoms: _200  and  _203
REMARK   80  A    between atoms: _203  and  _204
REMARK   81  A    between atoms: _209  and  _211
REMARK   82  A    between atoms: _211  and  _212
REMARK   83  A    between atoms: _211  and  _214
REMARK   84  A    between atoms: _214  and  _215
REMARK   85  A    between atoms: _218  and  _220
REMARK   86  A    between atoms: _220  and  _221
REMARK   87  A    between atoms: _220  and  _223
REMARK   88  A    between atoms: _223  and  _224
REMARK   89  A    between atoms: _226  and  _228
REMARK   90  A    between atoms: _228  and  _229
REMARK   91  A    between atoms: _231  and  _233
REMARK   92  A    between atoms: _233  and  _234
REMARK   93  A    between atoms: _233  and  _236
REMARK   94  A    between atoms: _236  and  _237
REMARK   95  A    between atoms: _237  and  _238
REMARK   96  A    between atoms: _240  and  _242
REMARK   97  A    between atoms: _242  and  _243
REMARK   98  A    between atoms: _242  and  _245
REMARK   99  A    between atoms: _245  and  _246
REMARK  100  A    between atoms: _249  and  _251
REMARK  101  A    between atoms: _251  and  _252
REMARK  102  A    between atoms: _251  and  _254
REMARK  103  A    between atoms: _254  and  _255
REMARK  104  A    between atoms: _255  and  _256
REMARK  105  A    between atoms: _256  and  _257
REMARK  106  A    between atoms: _257  and  _258
REMARK  107  A    between atoms: _262  and  _264
REMARK  108  A    between atoms: _264  and  _265
REMARK  109  A    between atoms: _264  and  _267
REMARK  110  A    between atoms: _270  and  _272
REMARK  111  A    between atoms: _272  and  _273
REMARK  112  A    between atoms: _272  and  _275
REMARK  113  A    between atoms: _275  and  _276
REMARK  114  A    between atoms: _278  and  _280
REMARK  115  A    between atoms: _280  and  _281
REMARK  116  A    between atoms: _280  and  _283
REMARK  117  A    between atoms: _286  and  _288
REMARK  118  A    between atoms: _288  and  _289
REMARK  119  A    between atoms: _291  and  _293
REMARK  120  A    between atoms: _293  and  _294
REMARK  121  A    between atoms: _297  and  _299
REMARK  122  A    between atoms: _299  and  _300
REMARK  123  A    between atoms: _299  and  _302
REMARK  124  A    between atoms: _302  and  _303
REMARK  125  A    between atoms: _306  and  _308
REMARK  126  A    between atoms: _308  and  _309
REMARK  127  A    between atoms: _308  and  _311
REMARK  128  A    between atoms: _314  and  _316
REMARK  129  A    between atoms: _316  and  _317
REMARK  130  A    between atoms: _316  and  _319
REMARK  131  A    between atoms: _319  and  _320
REMARK  132  A    between atoms: _323  and  _325
REMARK  133  A    between atoms: _325  and  _326
REMARK  134  A    between atoms: _329  and  _331
REMARK  135  A    between atoms: _331  and  _332
REMARK  136  A    between atoms: _331  and  _334
REMARK  137  A    between atoms: _334  and  _335
REMARK  138  A    between atoms: _335  and  _336
REMARK  139  A    between atoms: _339  and  _341
REMARK  140  A    between atoms: _341  and  _342
REMARK  141  A    between atoms: _341  and  _344
REMARK  142  A    between atoms: _344  and  _345
REMARK  143  A    between atoms: _345  and  _346
REMARK  144  A    between atoms: _349  and  _351
REMARK  145  A    between atoms: _351  and  _352
REMARK  146  A    between atoms: _351  and  _354
REMARK  147  A    between atoms: _354  and  _355
REMARK  148  A    between atoms: _358  and  _360
REMARK  149  A    between atoms: _360  and  _361
REMARK  150  A    between atoms: _360  and  _363
REMARK  151  A    between atoms: _363  and  _364
REMARK  152  A    between atoms: _367  and  _369
REMARK  153  A    between atoms: _369  and  _370
REMARK  154  A    between atoms: _369  and  _372
REMARK  155  A    between atoms: _372  and  _373
REMARK  156  A    between atoms: _373  and  _374
REMARK  157  A    between atoms: _374  and  _375
REMARK  158  A    between atoms: _384  and  _386
REMARK  159  A    between atoms: _386  and  _387
REMARK  160  A    between atoms: _386  and  _389
REMARK  161  A    between atoms: _389  and  _390
REMARK  162  A    between atoms: _393  and  _395
REMARK  163  A    between atoms: _395  and  _396
REMARK  164  A    between atoms: _400  and  _401
REMARK  165  A    between atoms: _406  and  _408
REMARK  166  A    between atoms: _408  and  _409
REMARK  167  A    between atoms: _408  and  _411
REMARK  168  A    between atoms: _411  and  _412
REMARK  169  A    between atoms: _418  and  _419
REMARK  170  A    between atoms: _424  and  _426
REMARK  171  A    between atoms: _426  and  _427
REMARK  172  A    between atoms: _426  and  _429
REMARK  173  A    between atoms: _429  and  _430
REMARK  174  A    between atoms: _433  and  _435
REMARK  175  A    between atoms: _435  and  _436
REMARK  176  A    between atoms: _435  and  _438
REMARK  177  A    between atoms: _438  and  _439
REMARK  178  A    between atoms: _442  and  _444
REMARK  179  A    between atoms: _444  and  _445
REMARK  180  A    between atoms: _444  and  _447
REMARK  181  A    between atoms: _447  and  _448
REMARK  182  A    between atoms: _448  and  _449
REMARK  183  A    between atoms: _451  and  _453
REMARK  184  A    between atoms: _453  and  _454
REMARK  185  A    between atoms: _453  and  _456
REMARK  186  A    between atoms: _456  and  _457
REMARK  187  A    between atoms: _457  and  _458
REMARK  188  A    between atoms: _461  and  _463
REMARK  189  A    between atoms: _463  and  _464
REMARK  190  A    between atoms: _463  and  _466
REMARK  191  A    between atoms: _466  and  _467
REMARK  192  A    between atoms: _470  and  _472
REMARK  193  A    between atoms: _472  and  _473
REMARK  194  A    between atoms: _472  and  _475
REMARK  195  A    between atoms: _478  and  _480
REMARK  196  A    between atoms: _480  and  _481
REMARK  197  A    between atoms: _480  and  _483
REMARK  198  A    between atoms: _483  and  _484
REMARK  199  A    between atoms: _490  and  _492
REMARK  200  A    between atoms: _492  and  _493
REMARK  201  A    between atoms: _492  and  _495
REMARK  202  A    between atoms: _495  and  _496
REMARK  203  A    between atoms: _496  and  _497
REMARK  204  A    between atoms: _500  and  _502
REMARK  205  A    between atoms: _502  and  _503
REMARK  206  A    between atoms: _502  and  _505
REMARK  207  A    between atoms: _505  and  _506
REMARK  208  A    between atoms: _511  and  _513
REMARK  209  A    between atoms: _513  and  _514
REMARK  210  A    between atoms: _513  and  _516
REMARK  211  A    between atoms: _516  and  _517
REMARK  212  A    between atoms: _517  and  _518
REMARK  213  A    between atoms: _518  and  _519
REMARK  214  A    between atoms: _528  and  _530
REMARK  215  A    between atoms: _530  and  _531
REMARK  216  A    between atoms: _530  and  _533
REMARK  217  A    between atoms: _533  and  _534
REMARK  218  A    between atoms: _537  and  _539
REMARK  219  A    between atoms: _539  and  _540
REMARK  220  A    between atoms: _539  and  _542
REMARK  221  A    between atoms: _542  and  _543
REMARK  222  A    between atoms: _546  and  _548
REMARK  223  A    between atoms: _548  and  _549
REMARK  224  A    between atoms: _548  and  _551
REMARK  225  A    between atoms: _551  and  _552
REMARK  226  A    between atoms: _552  and  _553
REMARK  227  A    between atoms: _553  and  _554
REMARK  228  A    between atoms: _563  and  _565
REMARK  229  A    between atoms: _565  and  _566
REMARK  230  A    between atoms: _569  and  _571
REMARK  231  A    between atoms: _571  and  _572
REMARK  232  A    between atoms: _571  and  _574
REMARK  233  A    between atoms: _574  and  _575
REMARK  234  A    between atoms: _575  and  _576
REMARK  235  A    between atoms: _576  and  _577
REMARK  236  A    between atoms: _586  and  _588
REMARK  237  A    between atoms: _588  and  _589
REMARK                            x       y       z     vdW  Elec       q    Type
REMARK                         _______ _______ _______ _____ _____    ______ ____
ROOT
ATOM      1  O   HOH     1     -12.187  -8.599  -5.564  0.00  0.00    +0.000 OA
ENDROOT
TORSDOF 0
REMARK  Name = ../refined-set-2016/3iss/3iss_pocket.pdb
REMARK  237 active torsions:
REMARK  status: ('A' for Active; 'I' for Inactive)
REMARK    1  A    between atoms: _1  and  _3
REMARK    2  A    between atoms: _3  and  _4
REMARK    3  A    between atoms: _3  and  _6
REMARK    4  A    between atoms: _6  and  _7
REMARK    5  A    between atoms: _7  and  _8
REMARK    6  A    between atoms: _8  and  _9
REMARK    7  A    between atoms: _9  and  _10
REMARK    8  A    between atoms: _14  and  _16
REMARK    9  A    between atoms: _16  and  _17
REMARK   10  A    between atoms: _16  and  _19
REMARK   11  A    between atoms: _19  and  _20
REMARK   12  A    between atoms: _25  and  _27
REMARK   13  A    between atoms: _27  and  _28
REMARK   14  A    between atoms: _31  and  _33
REMARK   15  A    between atoms: _33  and  _34
REMARK   16  A    between atoms: _33  and  _36
REMARK   17  A    between atoms: _36  and  _37
REMARK   18  A    between atoms: _41  and  _42
REMARK   19  A    between atoms: _47  and  _49
REMARK   20  A    between atoms: _49  and  _50
REMARK   21  A    between atoms: _49  and  _52
REMARK   22  A    between atoms: _52  and  _53
REMARK   23  A    between atoms: _56  and  _58
REMARK   24  A    between atoms: _58  and  _59
REMARK   25  A    between atoms: _58  and  _61
REMARK   26  A    between atoms: _61  and  _62
REMARK   27  A    between atoms: _62  and  _63
REMARK   28  A    between atoms: _65  and  _67
REMARK   29  A    between atoms: _67  and  _68
REMARK   30  A    between atoms: _67  and  _70
REMARK   31  A    between atoms: _70  and  _71
REMARK   32  A    between atoms: _71  and  _72
REMARK   33  A    between atoms: _72  and  _73
REMARK   34  A    between atoms: _82  and  _84
REMARK   35  A    between atoms: _84  and  _85
REMARK   36  A    between atoms: _88  and  _90
REMARK   37  A    between atoms: _90  and  _91
REMARK   38  A    between atoms: _90  and  _93
REMARK   39  A    between atoms: _93  and  _94
REMARK   40  A    between atoms: _96  and  _98
REMARK   41  A    between atoms: _98  and  _99
REMARK   42  A    between atoms: _98  and  _101
REMARK   43  A    between atoms: _101  and  _102
REMARK   44  A    between atoms: _105  and  _107
REMARK   45  A    between atoms: _107  and  _108
REMARK   46  A    between atoms: _107  and  _110
REMARK   47  A    between atoms: _110  and  _111
REMARK   48  A    between atoms: _121  and  _123
REMARK   49  A    between atoms: _123  and  _124
REMARK   50  A    between atoms: _123  and  _126
REMARK   51  A    between atoms: _128  and  _130
REMARK   52  A    between atoms: _130  and  _131
REMARK   53  A    between atoms: _130  and  _133
REMARK   54  A    between atoms: _133  and  _134
REMARK   55  A    between atoms: _137  and  _139
REMARK   56  A    between atoms: _139  and  _140
REMARK   57  A    between atoms: _142  and  _144
REMARK   58  A    between atoms: _144  and  _145
REMARK   59  A    between atoms: _148  and  _150
REMARK   60  A    between atoms: _150  and  _151
REMARK   61  A    between atoms: _150  and  _153
REMARK   62  A    between atoms: _153  and  _154
REMARK   63  A    between atoms: _154  and  _155
REMARK   64  A    between atoms: _155  and  _156
REMARK   65  A    between atoms: _166  and  _167
REMARK   66  A    between atoms: _172  and  _174
REMARK   67  A    between atoms: _174  and  _175
REMARK   68  A    between atoms: _174  and  _177
REMARK   69  A    between atoms: _180  and  _182
REMARK   70  A    between atoms: _182  and  _183
REMARK   71  A    between atoms: _182  and  _185
REMARK   72  A    between atoms: _185  and  _186
REMARK   73  A    between atoms: _189  and  _191
REMARK   74  A    between atoms: _191  and  _192
REMARK   75  A    between atoms: _191  and  _194
REMARK   76  A    between atoms: _194  and  _195
REMARK   77  A    between atoms: _198  and  _200
REMARK   78  A    between atoms: _200  and  _201
REMARK   79  A    between atoms: _200  and  _203
REMARK   80  A    between atoms: _203  and  _204
REMARK   81  A    between atoms: _209  and  _211
REMARK   82  A    between atoms: _211  and  _212
REMARK   83  A    between atoms: _211  and  _214
REMARK   84  A    between atoms: _214  and  _215
REMARK   85  A    between atoms: _218  and  _220
REMARK   86  A    between atoms: _220  and  _221
REMARK   87  A    between atoms: _220  and  _223
REMARK   88  A    between atoms: _223  and  _224
REMARK   89  A    between atoms: _226  and  _228
REMARK   90  A    between atoms: _228  and  _229
REMARK   91  A    between atoms: _231  and  _233
REMARK   92  A    between atoms: _233  and  _234
REMARK   93  A    between atoms: _233  and  _236
REMARK   94  A    between atoms: _236  and  _237
REMARK   95  A    between atoms: _237  and  _238
REMARK   96  A    between atoms: _240  and  _242
REMARK   97  A    between atoms: _242  and  _243
REMARK   98  A    between atoms: _242  and  _245
REMARK   99  A    between atoms: _245  and  _246
REMARK  100  A    between atoms: _249  and  _251
REMARK  101  A    between atoms: _251  and  _252
REMARK  102  A    between atoms: _251  and  _254
REMARK  103  A    between atoms: _254  and  _255
REMARK  104  A    between atoms: _255  and  _256
REMARK  105  A    between atoms: _256  and  _257
REMARK  106  A    between atoms: _257  and  _258
REMARK  107  A    between atoms: _262  and  _264
REMARK  108  A    between atoms: _264  and  _265
REMARK  109  A    between atoms: _264  and  _267
REMARK  110  A    between atoms: _270  and  _272
REMARK  111  A    between atoms: _272  and  _273
REMARK  112  A    between atoms: _272  and  _275
REMARK  113  A    between atoms: _275  and  _276
REMARK  114  A    between atoms: _278  and  _280
REMARK  115  A    between atoms: _280  and  _281
REMARK  116  A    between atoms: _280  and  _283
REMARK  117  A    between atoms: _286  and  _288
REMARK  118  A    between atoms: _288  and  _289
REMARK  119  A    between atoms: _291  and  _293
REMARK  120  A    between atoms: _293  and  _294
REMARK  121  A    between atoms: _297  and  _299
REMARK  122  A    between atoms: _299  and  _300
REMARK  123  A    between atoms: _299  and  _302
REMARK  124  A    between atoms: _302  and  _303
REMARK  125  A    between atoms: _306  and  _308
REMARK  126  A    between atoms: _308  and  _309
REMARK  127  A    between atoms: _308  and  _311
REMARK  128  A    between atoms: _314  and  _316
REMARK  129  A    between atoms: _316  and  _317
REMARK  130  A    between atoms: _316  and  _319
REMARK  131  A    between atoms: _319  and  _320
REMARK  132  A    between atoms: _323  and  _325
REMARK  133  A    between atoms: _325  and  _326
REMARK  134  A    between atoms: _329  and  _331
REMARK  135  A    between atoms: _331  and  _332
REMARK  136  A    between atoms: _331  and  _334
REMARK  137  A    between atoms: _334  and  _335
REMARK  138  A    between atoms: _335  and  _336
REMARK  139  A    between atoms: _339  and  _341
REMARK  140  A    between atoms: _341  and  _342
REMARK  141  A    between atoms: _341  and  _344
REMARK  142  A    between atoms: _344  and  _345
REMARK  143  A    between atoms: _345  and  _346
REMARK  144  A    between atoms: _349  and  _351
REMARK  145  A    between atoms: _351  and  _352
REMARK  146  A    between atoms: _351  and  _354
REMARK  147  A    between atoms: _354  and  _355
REMARK  148  A    between atoms: _358  and  _360
REMARK  149  A    between atoms: _360  and  _361
REMARK  150  A    between atoms: _360  and  _363
REMARK  151  A    between atoms: _363  and  _364
REMARK  152  A    between atoms: _367  and  _369
REMARK  153  A    between atoms: _369  and  _370
REMARK  154  A    between atoms: _369  and  _372
REMARK  155  A    between atoms: _372  and  _373
REMARK  156  A    between atoms: _373  and  _374
REMARK  157  A    between atoms: _374  and  _375
REMARK  158  A    between atoms: _384  and  _386
REMARK  159  A    between atoms: _386  and  _387
REMARK  160  A    between atoms: _386  and  _389
REMARK  161  A    between atoms: _389  and  _390
REMARK  162  A    between atoms: _393  and  _395
REMARK  163  A    between atoms: _395  and  _396
REMARK  164  A    between atoms: _400  and  _401
REMARK  165  A    between atoms: _406  and  _408
REMARK  166  A    between atoms: _408  and  _409
REMARK  167  A    between atoms: _408  and  _411
REMARK  168  A    between atoms: _411  and  _412
REMARK  169  A    between atoms: _418  and  _419
REMARK  170  A    between atoms: _424  and  _426
REMARK  171  A    between atoms: _426  and  _427
REMARK  172  A    between atoms: _426  and  _429
REMARK  173  A    between atoms: _429  and  _430
REMARK  174  A    between atoms: _433  and  _435
REMARK  175  A    between atoms: _435  and  _436
REMARK  176  A    between atoms: _435  and  _438
REMARK  177  A    between atoms: _438  and  _439
REMARK  178  A    between atoms: _442  and  _444
REMARK  179  A    between atoms: _444  and  _445
REMARK  180  A    between atoms: _444  and  _447
REMARK  181  A    between atoms: _447  and  _448
REMARK  182  A    between atoms: _448  and  _449
REMARK  183  A    between atoms: _451  and  _453
REMARK  184  A    between atoms: _453  and  _454
REMARK  185  A    between atoms: _453  and  _456
REMARK  186  A    between atoms: _456  and  _457
REMARK  187  A    between atoms: _457  and  _458
REMARK  188  A    between atoms: _461  and  _463
REMARK  189  A    between atoms: _463  and  _464
REMARK  190  A    between atoms: _463  and  _466
REMARK  191  A    between atoms: _466  and  _467
REMARK  192  A    between atoms: _470  and  _472
REMARK  193  A    between atoms: _472  and  _473
REMARK  194  A    between atoms: _472  and  _475
REMARK  195  A    between atoms: _478  and  _480
REMARK  196  A    between atoms: _480  and  _481
REMARK  197  A    between atoms: _480  and  _483
REMARK  198  A    between atoms: _483  and  _484
REMARK  199  A    between atoms: _490  and  _492
REMARK  200  A    between atoms: _492  and  _493
REMARK  201  A    between atoms: _492  and  _495
REMARK  202  A    between atoms: _495  and  _496
REMARK  203  A    between atoms: _496  and  _497
REMARK  204  A    between atoms: _500  and  _502
REMARK  205  A    between atoms: _502  and  _503
REMARK  206  A    between atoms: _502  and  _505
REMARK  207  A    between atoms: _505  and  _506
REMARK  208  A    between atoms: _511  and  _513
REMARK  209  A    between atoms: _513  and  _514
REMARK  210  A    between atoms: _513  and  _516
REMARK  211  A    between atoms: _516  and  _517
REMARK  212  A    between atoms: _517  and  _518
REMARK  213  A    between atoms: _518  and  _519
REMARK  214  A    between atoms: _528  and  _530
REMARK  215  A    between atoms: _530  and  _531
REMARK  216  A    between atoms: _530  and  _533
REMARK  217  A    between atoms: _533  and  _534
REMARK  218  A    between atoms: _537  and  _539
REMARK  219  A    between atoms: _539  and  _540
REMARK  220  A    between atoms: _539  and  _542
REMARK  221  A    between atoms: _542  and  _543
REMARK  222  A    between atoms: _546  and  _548
REMARK  223  A    between atoms: _548  and  _549
REMARK  224  A    between atoms: _548  and  _551
REMARK  225  A    between atoms: _551  and  _552
REMARK  226  A    between atoms: _552  and  _553
REMARK  227  A    between atoms: _553  and  _554
REMARK  228  A    between atoms: _563  and  _565
REMARK  229  A    between atoms: _565  and  _566
REMARK  230  A    between atoms: _569  and  _571
REMARK  231  A    between atoms: _571  and  _572
REMARK  232  A    between atoms: _571  and  _574
REMARK  233  A    between atoms: _574  and  _575
REMARK  234  A    between atoms: _575  and  _576
REMARK  235  A    between atoms: _576  and  _577
REMARK  236  A    between atoms: _586  and  _588
REMARK  237  A    between atoms: _588  and  _589
REMARK                            x       y       z     vdW  Elec       q    Type
REMARK                         _______ _______ _______ _____ _____    ______ ____
ROOT
ATOM      1  O   HOH     1      -6.684  -9.013  -0.721  0.00  0.00    +0.000 OA
ENDROOT
TORSDOF 0
