REMARK  Name = ../refined-set-2016/2ccb/2ccb_pocket.pdb
REMARK  98 active torsions:
REMARK  status: ('A' for Active; 'I' for Inactive)
REMARK    1  A    between atoms: _1  and  _5
REMARK    2  A    between atoms: _5  and  _6
REMARK    3  A    between atoms: _5  and  _8
REMARK    4  A    between atoms: _11  and  _13
REMARK    5  A    between atoms: _13  and  _14
REMARK    6  A    between atoms: _13  and  _16
REMARK    7  A    between atoms: _16  and  _17
REMARK    8  A    between atoms: _23  and  _25
REMARK    9  A    between atoms: _25  and  _26
REMARK   10  A    between atoms: _25  and  _28
REMARK   11  A    between atoms: _28  and  _29
REMARK   12  A    between atoms: _29  and  _30
REMARK   13  A    between atoms: _30  and  _31
REMARK   14  A    between atoms: _31  and  _32
REMARK   15  A    between atoms: _36  and  _38
REMARK   16  A    between atoms: _38  and  _39
REMARK   17  A    between atoms: _38  and  _41
REMARK   18  A    between atoms: _44  and  _46
REMARK   19  A    between atoms: _46  and  _47
REMARK   20  A    between atoms: _46  and  _49
REMARK   21  A    between atoms: _52  and  _54
REMARK   22  A    between atoms: _54  and  _55
REMARK   23  A    between atoms: _54  and  _57
REMARK   24  A    between atoms: _57  and  _58
REMARK   25  A    between atoms: _68  and  _70
REMARK   26  A    between atoms: _70  and  _71
REMARK   27  A    between atoms: _74  and  _76
REMARK   28  A    between atoms: _76  and  _77
REMARK   29  A    between atoms: _76  and  _79
REMARK   30  A    between atoms: _79  and  _80
REMARK   31  A    between atoms: _80  and  _81
REMARK   32  A    between atoms: _84  and  _86
REMARK   33  A    between atoms: _86  and  _87
REMARK   34  A    between atoms: _86  and  _89
REMARK   35  A    between atoms: _92  and  _94
REMARK   36  A    between atoms: _94  and  _95
REMARK   37  A    between atoms: _94  and  _97
REMARK   38  A    between atoms: _97  and  _98
REMARK   39  A    between atoms: _98  and  _99
REMARK   40  A    between atoms: _104  and  _106
REMARK   41  A    between atoms: _106  and  _107
REMARK   42  A    between atoms: _110  and  _112
REMARK   43  A    between atoms: _112  and  _113
REMARK   44  A    between atoms: _112  and  _115
REMARK   45  A    between atoms: _115  and  _116
REMARK   46  A    between atoms: _116  and  _117
REMARK   47  A    between atoms: _120  and  _122
REMARK   48  A    between atoms: _122  and  _123
REMARK   49  A    between atoms: _122  and  _125
REMARK   50  A    between atoms: _125  and  _126
REMARK   51  A    between atoms: _129  and  _131
REMARK   52  A    between atoms: _131  and  _132
REMARK   53  A    between atoms: _131  and  _134
REMARK   54  A    between atoms: _134  and  _135
REMARK   55  A    between atoms: _138  and  _140
REMARK   56  A    between atoms: _140  and  _141
REMARK   57  A    between atoms: _140  and  _143
REMARK   58  A    between atoms: _143  and  _144
REMARK   59  A    between atoms: _147  and  _149
REMARK   60  A    between atoms: _149  and  _150
REMARK   61  A    between atoms: _149  and  _152
REMARK   62  A    between atoms: _152  and  _153
REMARK   63  A    between atoms: _153  and  _154
REMARK   64  A    between atoms: _159  and  _161
REMARK   65  A    between atoms: _161  and  _162
REMARK   66  A    between atoms: _164  and  _166
REMARK   67  A    between atoms: _166  and  _167
REMARK   68  A    between atoms: _166  and  _169
REMARK   69  A    between atoms: _172  and  _174
REMARK   70  A    between atoms: _174  and  _175
REMARK   71  A    between atoms: _174  and  _177
REMARK   72  A    between atoms: _177  and  _178
REMARK   73  A    between atoms: _178  and  _179
REMARK   74  A    between atoms: _182  and  _184
REMARK   75  A    between atoms: _184  and  _185
REMARK   76  A    between atoms: _184  and  _187
REMARK   77  A    between atoms: _187  and  _188
REMARK   78  A    between atoms: _191  and  _193
REMARK   79  A    between atoms: _193  and  _194
REMARK   80  A    between atoms: _196  and  _198
REMARK   81  A    between atoms: _198  and  _199
REMARK   82  A    between atoms: _202  and  _204
REMARK   83  A    between atoms: _204  and  _205
REMARK   84  A    between atoms: _204  and  _207
REMARK   85  A    between atoms: _210  and  _212
REMARK   86  A    between atoms: _212  and  _213
REMARK   87  A    between atoms: _212  and  _215
REMARK   88  A    between atoms: _215  and  _216
REMARK   89  A    between atoms: _219  and  _221
REMARK   90  A    between atoms: _221  and  _222
REMARK   91  A    between atoms: _221  and  _224
REMARK   92  A    between atoms: _224  and  _225
REMARK   93  A    between atoms: _230  and  _231
REMARK   94  A    between atoms: _233  and  _235
REMARK   95  A    between atoms: _235  and  _236
REMARK   96  A    between atoms: _235  and  _238
REMARK   97  A    between atoms: _238  and  _239
REMARK   98  A    between atoms: _239  and  _240
REMARK                            x       y       z     vdW  Elec       q    Type
REMARK                         _______ _______ _______ _____ _____    ______ ____
ROOT
ATOM      1  C   VAL A   1       3.333  22.483 -12.186  0.00  0.00    +0.202 C 
ATOM      2  N   PHE A   2       3.269  21.479 -11.316  0.00  0.00    -0.301 N 
ATOM      3  H   PHE A   2       2.399  20.912 -11.259  0.00  0.00    +0.150 HD
ATOM      4  O   VAL A   1       4.272  23.306 -12.215  0.00  0.00    -0.277 OA
ENDROOT
BRANCH   1   5
ATOM      5  CA  VAL A   1       2.172  22.596 -13.174  0.00  0.00    +0.013 C 
BRANCH   5   6
ATOM      6  N   VAL A   1       1.727  24.039 -13.224  0.00  0.00    +0.387 N 
ATOM      7  H1  VAL A   1       1.419  24.339 -12.277  0.00  0.00    -0.089 HD
ATOM      8  H2  VAL A   1       2.520  24.634 -13.537  0.00  0.00    -0.089 HD
ATOM      9  H3  VAL A   1       0.936  24.134 -13.893  0.00  0.00    -0.089 HD
ENDBRANCH   5   6
BRANCH   5  10
ATOM     10  CB  VAL A   1       2.642  22.091 -14.572  0.00  0.00    -0.011 C 
ATOM     11  CG2 VAL A   1       3.052  20.609 -14.586  0.00  0.00    -0.002 C 
ATOM     12  CG1 VAL A   1       1.538  22.327 -15.649  0.00  0.00    -0.002 C 
ENDBRANCH   5  10
ENDBRANCH   1   5
BRANCH   2  13
ATOM     13  CA  PHE A   2       4.388  21.154 -10.441  0.00  0.00    +0.141 C 
BRANCH  13  14
ATOM     14  C   PHE A   2       5.095  19.920 -10.974  0.00  0.00    +0.227 C 
ATOM     15  O   PHE A   2       4.468  19.061 -11.580  0.00  0.00    -0.286 OA
ENDBRANCH  13  14
BRANCH  13  16
ATOM     16  CB  PHE A   2       3.900  20.876  -9.005  0.00  0.00    +0.054 C 
BRANCH  16  17
ATOM     17  CG  PHE A   2       3.099  22.011  -8.402  0.00  0.00    -0.020 A 
ATOM     18  CD2 PHE A   2       3.735  23.156  -7.930  0.00  0.00    -0.004 A 
ATOM     19  CE2 PHE A   2       2.982  24.209  -7.368  0.00  0.00    -0.000 A 
ATOM     20  CZ  PHE A   2       1.604  24.116  -7.291  0.00  0.00    -0.000 A 
ATOM     21  CE1 PHE A   2       0.953  22.968  -7.767  0.00  0.00    -0.000 A 
ATOM     22  CD1 PHE A   2       1.713  21.924  -8.326  0.00  0.00    -0.004 A 
ENDBRANCH  16  17
ENDBRANCH  13  16
ENDBRANCH   2  13
TORSDOF 7
REMARK  Name = ../refined-set-2016/2ccb/2ccb_pocket.pdb
REMARK  98 active torsions:
REMARK  status: ('A' for Active; 'I' for Inactive)
REMARK    1  A    between atoms: _1  and  _5
REMARK    2  A    between atoms: _5  and  _6
REMARK    3  A    between atoms: _5  and  _8
REMARK    4  A    between atoms: _11  and  _13
REMARK    5  A    between atoms: _13  and  _14
REMARK    6  A    between atoms: _13  and  _16
REMARK    7  A    between atoms: _16  and  _17
REMARK    8  A    between atoms: _23  and  _25
REMARK    9  A    between atoms: _25  and  _26
REMARK   10  A    between atoms: _25  and  _28
REMARK   11  A    between atoms: _28  and  _29
REMARK   12  A    between atoms: _29  and  _30
REMARK   13  A    between atoms: _30  and  _31
REMARK   14  A    between atoms: _31  and  _32
REMARK   15  A    between atoms: _36  and  _38
REMARK   16  A    between atoms: _38  and  _39
REMARK   17  A    between atoms: _38  and  _41
REMARK   18  A    between atoms: _44  and  _46
REMARK   19  A    between atoms: _46  and  _47
REMARK   20  A    between atoms: _46  and  _49
REMARK   21  A    between atoms: _52  and  _54
REMARK   22  A    between atoms: _54  and  _55
REMARK   23  A    between atoms: _54  and  _57
REMARK   24  A    between atoms: _57  and  _58
REMARK   25  A    between atoms: _68  and  _70
REMARK   26  A    between atoms: _70  and  _71
REMARK   27  A    between atoms: _74  and  _76
REMARK   28  A    between atoms: _76  and  _77
REMARK   29  A    between atoms: _76  and  _79
REMARK   30  A    between atoms: _79  and  _80
REMARK   31  A    between atoms: _80  and  _81
REMARK   32  A    between atoms: _84  and  _86
REMARK   33  A    between atoms: _86  and  _87
REMARK   34  A    between atoms: _86  and  _89
REMARK   35  A    between atoms: _92  and  _94
REMARK   36  A    between atoms: _94  and  _95
REMARK   37  A    between atoms: _94  and  _97
REMARK   38  A    between atoms: _97  and  _98
REMARK   39  A    between atoms: _98  and  _99
REMARK   40  A    between atoms: _104  and  _106
REMARK   41  A    between atoms: _106  and  _107
REMARK   42  A    between atoms: _110  and  _112
REMARK   43  A    between atoms: _112  and  _113
REMARK   44  A    between atoms: _112  and  _115
REMARK   45  A    between atoms: _115  and  _116
REMARK   46  A    between atoms: _116  and  _117
REMARK   47  A    between atoms: _120  and  _122
REMARK   48  A    between atoms: _122  and  _123
REMARK   49  A    between atoms: _122  and  _125
REMARK   50  A    between atoms: _125  and  _126
REMARK   51  A    between atoms: _129  and  _131
REMARK   52  A    between atoms: _131  and  _132
REMARK   53  A    between atoms: _131  and  _134
REMARK   54  A    between atoms: _134  and  _135
REMARK   55  A    between atoms: _138  and  _140
REMARK   56  A    between atoms: _140  and  _141
REMARK   57  A    between atoms: _140  and  _143
REMARK   58  A    between atoms: _143  and  _144
REMARK   59  A    between atoms: _147  and  _149
REMARK   60  A    between atoms: _149  and  _150
REMARK   61  A    between atoms: _149  and  _152
REMARK   62  A    between atoms: _152  and  _153
REMARK   63  A    between atoms: _153  and  _154
REMARK   64  A    between atoms: _159  and  _161
REMARK   65  A    between atoms: _161  and  _162
REMARK   66  A    between atoms: _164  and  _166
REMARK   67  A    between atoms: _166  and  _167
REMARK   68  A    between atoms: _166  and  _169
REMARK   69  A    between atoms: _172  and  _174
REMARK   70  A    between atoms: _174  and  _175
REMARK   71  A    between atoms: _174  and  _177
REMARK   72  A    between atoms: _177  and  _178
REMARK   73  A    between atoms: _178  and  _179
REMARK   74  A    between atoms: _182  and  _184
REMARK   75  A    between atoms: _184  and  _185
REMARK   76  A    between atoms: _184  and  _187
REMARK   77  A    between atoms: _187  and  _188
REMARK   78  A    between atoms: _191  and  _193
REMARK   79  A    between atoms: _193  and  _194
REMARK   80  A    between atoms: _196  and  _198
REMARK   81  A    between atoms: _198  and  _199
REMARK   82  A    between atoms: _202  and  _204
REMARK   83  A    between atoms: _204  and  _205
REMARK   84  A    between atoms: _204  and  _207
REMARK   85  A    between atoms: _210  and  _212
REMARK   86  A    between atoms: _212  and  _213
REMARK   87  A    between atoms: _212  and  _215
REMARK   88  A    between atoms: _215  and  _216
REMARK   89  A    between atoms: _219  and  _221
REMARK   90  A    between atoms: _221  and  _222
REMARK   91  A    between atoms: _221  and  _224
REMARK   92  A    between atoms: _224  and  _225
REMARK   93  A    between atoms: _230  and  _231
REMARK   94  A    between atoms: _233  and  _235
REMARK   95  A    between atoms: _235  and  _236
REMARK   96  A    between atoms: _235  and  _238
REMARK   97  A    between atoms: _238  and  _239
REMARK   98  A    between atoms: _239  and  _240
REMARK                            x       y       z     vdW  Elec       q    Type
REMARK                         _______ _______ _______ _____ _____    ______ ____
ROOT
ATOM      1  CG  LYS A   1       6.828  16.167  -6.804  0.00  0.00    -0.000 C 
ENDROOT
BRANCH   1   2
ATOM      2  CB  LYS A   1       7.857  15.439  -7.652  0.00  0.00    +0.025 C 
BRANCH   2   3
ATOM      3  CA  LYS A   1       8.740  16.403  -8.427  0.00  0.00    +0.133 C 
BRANCH   3   4
ATOM      4  N   LYS A   1       8.030  16.880  -9.601  0.00  0.00    -0.239 NA
ATOM      5  H   LYS A   1       7.661  16.204 -10.300  0.00  0.00    +0.142 HD
ENDBRANCH   3   4
BRANCH   3   6
ATOM      6  C   LYS A   1       9.992  15.673  -8.845  0.00  0.00    +0.224 C 
ATOM      7  O   LYS A   1       9.970  14.926  -9.823  0.00  0.00    -0.287 OA
ENDBRANCH   3   6
ENDBRANCH   2   3
ENDBRANCH   1   2
BRANCH   1   8
ATOM      8  CD  LYS A   1       5.832  15.161  -6.231  0.00  0.00    -0.024 C 
BRANCH   8   9
ATOM      9  CE  LYS A   1       4.802  15.870  -5.390  0.00  0.00    -0.086 C 
BRANCH   9  10
ATOM     10  NZ  LYS A   1       3.618  14.982  -5.032  0.00  0.00    +0.380 N 
ATOM     11  HZ1 LYS A   1       2.943  15.522  -4.454  0.00  0.00    -0.089 HD
ATOM     12  HZ2 LYS A   1       3.954  14.158  -4.495  0.00  0.00    -0.089 HD
ATOM     13  HZ3 LYS A   1       3.150  14.661  -5.904  0.00  0.00    -0.089 HD
ENDBRANCH   9  10
ENDBRANCH   8   9
ENDBRANCH   1   8
TORSDOF 7
REMARK  Name = ../refined-set-2016/2ccb/2ccb_pocket.pdb
REMARK  98 active torsions:
REMARK  status: ('A' for Active; 'I' for Inactive)
REMARK    1  A    between atoms: _1  and  _5
REMARK    2  A    between atoms: _5  and  _6
REMARK    3  A    between atoms: _5  and  _8
REMARK    4  A    between atoms: _11  and  _13
REMARK    5  A    between atoms: _13  and  _14
REMARK    6  A    between atoms: _13  and  _16
REMARK    7  A    between atoms: _16  and  _17
REMARK    8  A    between atoms: _23  and  _25
REMARK    9  A    between atoms: _25  and  _26
REMARK   10  A    between atoms: _25  and  _28
REMARK   11  A    between atoms: _28  and  _29
REMARK   12  A    between atoms: _29  and  _30
REMARK   13  A    between atoms: _30  and  _31
REMARK   14  A    between atoms: _31  and  _32
REMARK   15  A    between atoms: _36  and  _38
REMARK   16  A    between atoms: _38  and  _39
REMARK   17  A    between atoms: _38  and  _41
REMARK   18  A    between atoms: _44  and  _46
REMARK   19  A    between atoms: _46  and  _47
REMARK   20  A    between atoms: _46  and  _49
REMARK   21  A    between atoms: _52  and  _54
REMARK   22  A    between atoms: _54  and  _55
REMARK   23  A    between atoms: _54  and  _57
REMARK   24  A    between atoms: _57  and  _58
REMARK   25  A    between atoms: _68  and  _70
REMARK   26  A    between atoms: _70  and  _71
REMARK   27  A    between atoms: _74  and  _76
REMARK   28  A    between atoms: _76  and  _77
REMARK   29  A    between atoms: _76  and  _79
REMARK   30  A    between atoms: _79  and  _80
REMARK   31  A    between atoms: _80  and  _81
REMARK   32  A    between atoms: _84  and  _86
REMARK   33  A    between atoms: _86  and  _87
REMARK   34  A    between atoms: _86  and  _89
REMARK   35  A    between atoms: _92  and  _94
REMARK   36  A    between atoms: _94  and  _95
REMARK   37  A    between atoms: _94  and  _97
REMARK   38  A    between atoms: _97  and  _98
REMARK   39  A    between atoms: _98  and  _99
REMARK   40  A    between atoms: _104  and  _106
REMARK   41  A    between atoms: _106  and  _107
REMARK   42  A    between atoms: _110  and  _112
REMARK   43  A    between atoms: _112  and  _113
REMARK   44  A    between atoms: _112  and  _115
REMARK   45  A    between atoms: _115  and  _116
REMARK   46  A    between atoms: _116  and  _117
REMARK   47  A    between atoms: _120  and  _122
REMARK   48  A    between atoms: _122  and  _123
REMARK   49  A    between atoms: _122  and  _125
REMARK   50  A    between atoms: _125  and  _126
REMARK   51  A    between atoms: _129  and  _131
REMARK   52  A    between atoms: _131  and  _132
REMARK   53  A    between atoms: _131  and  _134
REMARK   54  A    between atoms: _134  and  _135
REMARK   55  A    between atoms: _138  and  _140
REMARK   56  A    between atoms: _140  and  _141
REMARK   57  A    between atoms: _140  and  _143
REMARK   58  A    between atoms: _143  and  _144
REMARK   59  A    between atoms: _147  and  _149
REMARK   60  A    between atoms: _149  and  _150
REMARK   61  A    between atoms: _149  and  _152
REMARK   62  A    between atoms: _152  and  _153
REMARK   63  A    between atoms: _153  and  _154
REMARK   64  A    between atoms: _159  and  _161
REMARK   65  A    between atoms: _161  and  _162
REMARK   66  A    between atoms: _164  and  _166
REMARK   67  A    between atoms: _166  and  _167
REMARK   68  A    between atoms: _166  and  _169
REMARK   69  A    between atoms: _172  and  _174
REMARK   70  A    between atoms: _174  and  _175
REMARK   71  A    between atoms: _174  and  _177
REMARK   72  A    between atoms: _177  and  _178
REMARK   73  A    between atoms: _178  and  _179
REMARK   74  A    between atoms: _182  and  _184
REMARK   75  A    between atoms: _184  and  _185
REMARK   76  A    between atoms: _184  and  _187
REMARK   77  A    between atoms: _187  and  _188
REMARK   78  A    between atoms: _191  and  _193
REMARK   79  A    between atoms: _193  and  _194
REMARK   80  A    between atoms: _196  and  _198
REMARK   81  A    between atoms: _198  and  _199
REMARK   82  A    between atoms: _202  and  _204
REMARK   83  A    between atoms: _204  and  _205
REMARK   84  A    between atoms: _204  and  _207
REMARK   85  A    between atoms: _210  and  _212
REMARK   86  A    between atoms: _212  and  _213
REMARK   87  A    between atoms: _212  and  _215
REMARK   88  A    between atoms: _215  and  _216
REMARK   89  A    between atoms: _219  and  _221
REMARK   90  A    between atoms: _221  and  _222
REMARK   91  A    between atoms: _221  and  _224
REMARK   92  A    between atoms: _224  and  _225
REMARK   93  A    between atoms: _230  and  _231
REMARK   94  A    between atoms: _233  and  _235
REMARK   95  A    between atoms: _235  and  _236
REMARK   96  A    between atoms: _235  and  _238
REMARK   97  A    between atoms: _238  and  _239
REMARK   98  A    between atoms: _239  and  _240
REMARK                            x       y       z     vdW  Elec       q    Type
REMARK                         _______ _______ _______ _____ _____    ______ ____
ROOT
ATOM      1  CA  TRP A   3       7.356  21.623  -0.824  0.00  0.00    +0.153 C 
ENDROOT
BRANCH   1   4
ATOM      2  C   VAL A   2       7.357  23.820  -1.821  0.00  0.00    +0.241 C 
ATOM      3  O   VAL A   2       6.938  24.298  -0.785  0.00  0.00    -0.273 OA
ATOM      4  N   TRP A   3       7.560  22.516  -1.963  0.00  0.00    -0.297 N 
ATOM      5  H   TRP A   3       7.863  22.131  -2.881  0.00  0.00    +0.150 HD
BRANCH   2   6
ATOM      6  CA  VAL A   2       7.624  24.730  -3.025  0.00  0.00    +0.148 C 
BRANCH   6   9
ATOM      7  C   VAL A   1       9.850  25.150  -3.887  0.00  0.00    +0.238 C 
ATOM      8  O   VAL A   1       9.977  26.161  -3.169  0.00  0.00    -0.274 OA
ATOM      9  N   VAL A   2       8.781  24.357  -3.836  0.00  0.00    -0.297 N 
ATOM     10  H   VAL A   2       8.770  23.468  -4.376  0.00  0.00    +0.150 HD
BRANCH   7  11
ATOM     11  CA  VAL A   1      10.925  24.794  -4.917  0.00  0.00    +0.145 C 
BRANCH  11  12
ATOM     12  CB  VAL A   1      12.239  24.339  -4.233  0.00  0.00    +0.025 C 
ATOM     13  CG2 VAL A   1      11.950  23.290  -3.152  0.00  0.00    +0.002 C 
ATOM     14  CG1 VAL A   1      13.186  23.747  -5.279  0.00  0.00    +0.002 C 
ENDBRANCH  11  12
BRANCH  11  15
ATOM     15  N   VAL A   1      11.142  25.970  -5.779  0.00  0.00    -0.238 NA
ATOM     16  H   VAL A   1      12.041  26.490  -5.717  0.00  0.00    +0.142 HD
ENDBRANCH  11  15
ENDBRANCH   7  11
ENDBRANCH   6   9
BRANCH   6  17
ATOM     17  CB  VAL A   2       6.330  24.933  -3.859  0.00  0.00    +0.027 C 
ATOM     18  CG2 VAL A   2       6.342  26.331  -4.532  0.00  0.00    +0.002 C 
ATOM     19  CG1 VAL A   2       6.185  23.868  -4.920  0.00  0.00    +0.002 C 
ENDBRANCH   6  17
ENDBRANCH   2   6
ENDBRANCH   1   4
BRANCH   1  20
ATOM     20  C   TRP A   3       8.080  20.305  -1.033  0.00  0.00    +0.241 C 
ATOM     21  N   ALA A   4       8.166  19.529   0.044  0.00  0.00    -0.297 N 
ATOM     22  H   ALA A   4       7.839  19.883   0.965  0.00  0.00    +0.150 HD
ATOM     23  O   TRP A   3       8.614  20.038  -2.132  0.00  0.00    -0.273 OA
BRANCH  21  24
ATOM     24  CA  ALA A   4       8.721  18.175  -0.063  0.00  0.00    +0.149 C 
ATOM     25  CB  ALA A   4      10.129  18.115   0.446  0.00  0.00    +0.031 C 
BRANCH  24  26
ATOM     26  C   ALA A   4       7.848  17.206   0.698  0.00  0.00    +0.241 C 
ATOM     27  O   ALA A   4       7.252  17.556   1.722  0.00  0.00    -0.273 OA
ATOM     28  N   GLU A   5       7.753  15.984   0.175  0.00  0.00    -0.297 N 
ATOM     29  H   GLU A   5       8.216  15.786  -0.735  0.00  0.00    +0.150 HD
BRANCH  28  30
ATOM     30  CA  GLU A   5       7.011  14.907   0.849  0.00  0.00    +0.149 C 
BRANCH  30  31
ATOM     31  C   GLU A   5       7.985  13.787   1.186  0.00  0.00    +0.241 C 
ATOM     32  N   VAL A   6       8.003  13.370   2.445  0.00  0.00    -0.298 N 
ATOM     33  H   VAL A   6       7.387  13.818   3.153  0.00  0.00    +0.150 HD
ATOM     34  O   GLU A   5       8.697  13.298   0.318  0.00  0.00    -0.273 OA
BRANCH  32  35
ATOM     35  CA  VAL A   6       8.890  12.281   2.830  0.00  0.00    +0.137 C 
BRANCH  35  36
ATOM     36  CB  VAL A   6       9.023  12.185   4.369  0.00  0.00    +0.026 C 
ATOM     37  CG2 VAL A   6       9.701  13.480   4.910  0.00  0.00    +0.002 C 
ATOM     38  CG1 VAL A   6       9.799  10.949   4.756  0.00  0.00    +0.002 C 
ENDBRANCH  35  36
BRANCH  35  39
ATOM     39  C   VAL A   6       8.295  10.974   2.321  0.00  0.00    +0.227 C 
ATOM     40  O   VAL A   6       7.100  10.686   2.563  0.00  0.00    -0.286 OA
ENDBRANCH  35  39
ENDBRANCH  32  35
ENDBRANCH  30  31
BRANCH  30  41
ATOM     41  CB  GLU A   5       5.931  14.354  -0.095  0.00  0.00    +0.041 C 
BRANCH  41  42
ATOM     42  CG  GLU A   5       4.940  15.430  -0.527  0.00  0.00    +0.116 C 
BRANCH  42  43
ATOM     43  CD  GLU A   5       3.835  14.929  -1.461  0.00  0.00    +0.365 C 
ATOM     44  OE2 GLU A   5       3.366  13.769  -1.290  0.00  0.00    -0.246 OA
ATOM     45  OE1 GLU A   5       3.423  15.714  -2.352  0.00  0.00    -0.246 OA
ENDBRANCH  42  43
ENDBRANCH  41  42
ENDBRANCH  30  41
ENDBRANCH  28  30
ENDBRANCH  24  26
ENDBRANCH  21  24
ENDBRANCH   1  20
BRANCH   1  46
ATOM     46  CB  TRP A   3       5.857  21.330  -0.574  0.00  0.00    +0.057 C 
BRANCH  46  47
ATOM     47  CG  TRP A   3       5.180  20.307  -1.493  0.00  0.00    -0.002 A 
ATOM     48  CD1 TRP A   3       5.135  18.936  -1.344  0.00  0.00    +0.068 A 
ATOM     49  NE1 TRP A   3       4.389  18.374  -2.364  0.00  0.00    -0.352 N 
ATOM     50  HE1 TRP A   3       4.205  17.358  -2.492  0.00  0.00    +0.166 HD
ATOM     51  CE2 TRP A   3       3.932  19.378  -3.178  0.00  0.00    +0.056 A 
ATOM     52  CZ2 TRP A   3       3.145  19.306  -4.333  0.00  0.00    +0.017 A 
ATOM     53  CH2 TRP A   3       2.828  20.487  -4.958  0.00  0.00    +0.001 A 
ATOM     54  CZ3 TRP A   3       3.278  21.717  -4.475  0.00  0.00    +0.000 A 
ATOM     55  CE3 TRP A   3       4.068  21.792  -3.313  0.00  0.00    +0.001 A 
ATOM     56  CD2 TRP A   3       4.417  20.602  -2.662  0.00  0.00    +0.013 A 
ENDBRANCH  46  47
ENDBRANCH   1  46
TORSDOF 20
REMARK  Name = ../refined-set-2016/2ccb/2ccb_pocket.pdb
REMARK  98 active torsions:
REMARK  status: ('A' for Active; 'I' for Inactive)
REMARK    1  A    between atoms: _1  and  _5
REMARK    2  A    between atoms: _5  and  _6
REMARK    3  A    between atoms: _5  and  _8
REMARK    4  A    between atoms: _11  and  _13
REMARK    5  A    between atoms: _13  and  _14
REMARK    6  A    between atoms: _13  and  _16
REMARK    7  A    between atoms: _16  and  _17
REMARK    8  A    between atoms: _23  and  _25
REMARK    9  A    between atoms: _25  and  _26
REMARK   10  A    between atoms: _25  and  _28
REMARK   11  A    between atoms: _28  and  _29
REMARK   12  A    between atoms: _29  and  _30
REMARK   13  A    between atoms: _30  and  _31
REMARK   14  A    between atoms: _31  and  _32
REMARK   15  A    between atoms: _36  and  _38
REMARK   16  A    between atoms: _38  and  _39
REMARK   17  A    between atoms: _38  and  _41
REMARK   18  A    between atoms: _44  and  _46
REMARK   19  A    between atoms: _46  and  _47
REMARK   20  A    between atoms: _46  and  _49
REMARK   21  A    between atoms: _52  and  _54
REMARK   22  A    between atoms: _54  and  _55
REMARK   23  A    between atoms: _54  and  _57
REMARK   24  A    between atoms: _57  and  _58
REMARK   25  A    between atoms: _68  and  _70
REMARK   26  A    between atoms: _70  and  _71
REMARK   27  A    between atoms: _74  and  _76
REMARK   28  A    between atoms: _76  and  _77
REMARK   29  A    between atoms: _76  and  _79
REMARK   30  A    between atoms: _79  and  _80
REMARK   31  A    between atoms: _80  and  _81
REMARK   32  A    between atoms: _84  and  _86
REMARK   33  A    between atoms: _86  and  _87
REMARK   34  A    between atoms: _86  and  _89
REMARK   35  A    between atoms: _92  and  _94
REMARK   36  A    between atoms: _94  and  _95
REMARK   37  A    between atoms: _94  and  _97
REMARK   38  A    between atoms: _97  and  _98
REMARK   39  A    between atoms: _98  and  _99
REMARK   40  A    between atoms: _104  and  _106
REMARK   41  A    between atoms: _106  and  _107
REMARK   42  A    between atoms: _110  and  _112
REMARK   43  A    between atoms: _112  and  _113
REMARK   44  A    between atoms: _112  and  _115
REMARK   45  A    between atoms: _115  and  _116
REMARK   46  A    between atoms: _116  and  _117
REMARK   47  A    between atoms: _120  and  _122
REMARK   48  A    between atoms: _122  and  _123
REMARK   49  A    between atoms: _122  and  _125
REMARK   50  A    between atoms: _125  and  _126
REMARK   51  A    between atoms: _129  and  _131
REMARK   52  A    between atoms: _131  and  _132
REMARK   53  A    between atoms: _131  and  _134
REMARK   54  A    between atoms: _134  and  _135
REMARK   55  A    between atoms: _138  and  _140
REMARK   56  A    between atoms: _140  and  _141
REMARK   57  A    between atoms: _140  and  _143
REMARK   58  A    between atoms: _143  and  _144
REMARK   59  A    between atoms: _147  and  _149
REMARK   60  A    between atoms: _149  and  _150
REMARK   61  A    between atoms: _149  and  _152
REMARK   62  A    between atoms: _152  and  _153
REMARK   63  A    between atoms: _153  and  _154
REMARK   64  A    between atoms: _159  and  _161
REMARK   65  A    between atoms: _161  and  _162
REMARK   66  A    between atoms: _164  and  _166
REMARK   67  A    between atoms: _166  and  _167
REMARK   68  A    between atoms: _166  and  _169
REMARK   69  A    between atoms: _172  and  _174
REMARK   70  A    between atoms: _174  and  _175
REMARK   71  A    between atoms: _174  and  _177
REMARK   72  A    between atoms: _177  and  _178
REMARK   73  A    between atoms: _178  and  _179
REMARK   74  A    between atoms: _182  and  _184
REMARK   75  A    between atoms: _184  and  _185
REMARK   76  A    between atoms: _184  and  _187
REMARK   77  A    between atoms: _187  and  _188
REMARK   78  A    between atoms: _191  and  _193
REMARK   79  A    between atoms: _193  and  _194
REMARK   80  A    between atoms: _196  and  _198
REMARK   81  A    between atoms: _198  and  _199
REMARK   82  A    between atoms: _202  and  _204
REMARK   83  A    between atoms: _204  and  _205
REMARK   84  A    between atoms: _204  and  _207
REMARK   85  A    between atoms: _210  and  _212
REMARK   86  A    between atoms: _212  and  _213
REMARK   87  A    between atoms: _212  and  _215
REMARK   88  A    between atoms: _215  and  _216
REMARK   89  A    between atoms: _219  and  _221
REMARK   90  A    between atoms: _221  and  _222
REMARK   91  A    between atoms: _221  and  _224
REMARK   92  A    between atoms: _224  and  _225
REMARK   93  A    between atoms: _230  and  _231
REMARK   94  A    between atoms: _233  and  _235
REMARK   95  A    between atoms: _235  and  _236
REMARK   96  A    between atoms: _235  and  _238
REMARK   97  A    between atoms: _238  and  _239
REMARK   98  A    between atoms: _239  and  _240
REMARK                            x       y       z     vdW  Elec       q    Type
REMARK                         _______ _______ _______ _____ _____    ______ ____
ROOT
ATOM      1  CB  GLN A   1       8.336  13.544  -3.776  0.00  0.00    +0.035 C 
ENDROOT
BRANCH   1   2
ATOM      2  CA  GLN A   1       9.759  14.001  -3.448  0.00  0.00    +0.134 C 
BRANCH   2   3
ATOM      3  N   GLN A   1      10.184  13.415  -2.188  0.00  0.00    -0.239 NA
ATOM      4  H   GLN A   1       9.466  13.082  -1.513  0.00  0.00    +0.142 HD
ENDBRANCH   2   3
BRANCH   2   5
ATOM      5  C   GLN A   1       9.800  15.510  -3.236  0.00  0.00    +0.224 C 
ATOM      6  O   GLN A   1       9.094  16.039  -2.379  0.00  0.00    -0.287 OA
ENDBRANCH   2   5
ENDBRANCH   1   2
BRANCH   1   7
ATOM      7  CG  GLN A   1       8.269  12.023  -4.077  0.00  0.00    +0.087 C 
BRANCH   7   8
ATOM      8  CD  GLN A   1       8.698  11.679  -5.524  0.00  0.00    +0.219 C 
ATOM      9  NE2 GLN A   1       8.392  10.444  -5.936  0.00  0.00    -0.329 N 
ATOM     10 HE21 GLN A   1       7.877   9.798  -5.305  0.00  0.00    +0.145 HD
ATOM     11 HE22 GLN A   1       8.669  10.130  -6.888  0.00  0.00    +0.145 HD
ATOM     12  OE1 GLN A   1       9.316  12.499  -6.240  0.00  0.00    -0.275 OA
ENDBRANCH   7   8
ENDBRANCH   1   7
TORSDOF 5
REMARK  Name = ../refined-set-2016/2ccb/2ccb_pocket.pdb
REMARK  98 active torsions:
REMARK  status: ('A' for Active; 'I' for Inactive)
REMARK    1  A    between atoms: _1  and  _5
REMARK    2  A    between atoms: _5  and  _6
REMARK    3  A    between atoms: _5  and  _8
REMARK    4  A    between atoms: _11  and  _13
REMARK    5  A    between atoms: _13  and  _14
REMARK    6  A    between atoms: _13  and  _16
REMARK    7  A    between atoms: _16  and  _17
REMARK    8  A    between atoms: _23  and  _25
REMARK    9  A    between atoms: _25  and  _26
REMARK   10  A    between atoms: _25  and  _28
REMARK   11  A    between atoms: _28  and  _29
REMARK   12  A    between atoms: _29  and  _30
REMARK   13  A    between atoms: _30  and  _31
REMARK   14  A    between atoms: _31  and  _32
REMARK   15  A    between atoms: _36  and  _38
REMARK   16  A    between atoms: _38  and  _39
REMARK   17  A    between atoms: _38  and  _41
REMARK   18  A    between atoms: _44  and  _46
REMARK   19  A    between atoms: _46  and  _47
REMARK   20  A    between atoms: _46  and  _49
REMARK   21  A    between atoms: _52  and  _54
REMARK   22  A    between atoms: _54  and  _55
REMARK   23  A    between atoms: _54  and  _57
REMARK   24  A    between atoms: _57  and  _58
REMARK   25  A    between atoms: _68  and  _70
REMARK   26  A    between atoms: _70  and  _71
REMARK   27  A    between atoms: _74  and  _76
REMARK   28  A    between atoms: _76  and  _77
REMARK   29  A    between atoms: _76  and  _79
REMARK   30  A    between atoms: _79  and  _80
REMARK   31  A    between atoms: _80  and  _81
REMARK   32  A    between atoms: _84  and  _86
REMARK   33  A    between atoms: _86  and  _87
REMARK   34  A    between atoms: _86  and  _89
REMARK   35  A    between atoms: _92  and  _94
REMARK   36  A    between atoms: _94  and  _95
REMARK   37  A    between atoms: _94  and  _97
REMARK   38  A    between atoms: _97  and  _98
REMARK   39  A    between atoms: _98  and  _99
REMARK   40  A    between atoms: _104  and  _106
REMARK   41  A    between atoms: _106  and  _107
REMARK   42  A    between atoms: _110  and  _112
REMARK   43  A    between atoms: _112  and  _113
REMARK   44  A    between atoms: _112  and  _115
REMARK   45  A    between atoms: _115  and  _116
REMARK   46  A    between atoms: _116  and  _117
REMARK   47  A    between atoms: _120  and  _122
REMARK   48  A    between atoms: _122  and  _123
REMARK   49  A    between atoms: _122  and  _125
REMARK   50  A    between atoms: _125  and  _126
REMARK   51  A    between atoms: _129  and  _131
REMARK   52  A    between atoms: _131  and  _132
REMARK   53  A    between atoms: _131  and  _134
REMARK   54  A    between atoms: _134  and  _135
REMARK   55  A    between atoms: _138  and  _140
REMARK   56  A    between atoms: _140  and  _141
REMARK   57  A    between atoms: _140  and  _143
REMARK   58  A    between atoms: _143  and  _144
REMARK   59  A    between atoms: _147  and  _149
REMARK   60  A    between atoms: _149  and  _150
REMARK   61  A    between atoms: _149  and  _152
REMARK   62  A    between atoms: _152  and  _153
REMARK   63  A    between atoms: _153  and  _154
REMARK   64  A    between atoms: _159  and  _161
REMARK   65  A    between atoms: _161  and  _162
REMARK   66  A    between atoms: _164  and  _166
REMARK   67  A    between atoms: _166  and  _167
REMARK   68  A    between atoms: _166  and  _169
REMARK   69  A    between atoms: _172  and  _174
REMARK   70  A    between atoms: _174  and  _175
REMARK   71  A    between atoms: _174  and  _177
REMARK   72  A    between atoms: _177  and  _178
REMARK   73  A    between atoms: _178  and  _179
REMARK   74  A    between atoms: _182  and  _184
REMARK   75  A    between atoms: _184  and  _185
REMARK   76  A    between atoms: _184  and  _187
REMARK   77  A    between atoms: _187  and  _188
REMARK   78  A    between atoms: _191  and  _193
REMARK   79  A    between atoms: _193  and  _194
REMARK   80  A    between atoms: _196  and  _198
REMARK   81  A    between atoms: _198  and  _199
REMARK   82  A    between atoms: _202  and  _204
REMARK   83  A    between atoms: _204  and  _205
REMARK   84  A    between atoms: _204  and  _207
REMARK   85  A    between atoms: _210  and  _212
REMARK   86  A    between atoms: _212  and  _213
REMARK   87  A    between atoms: _212  and  _215
REMARK   88  A    between atoms: _215  and  _216
REMARK   89  A    between atoms: _219  and  _221
REMARK   90  A    between atoms: _221  and  _222
REMARK   91  A    between atoms: _221  and  _224
REMARK   92  A    between atoms: _224  and  _225
REMARK   93  A    between atoms: _230  and  _231
REMARK   94  A    between atoms: _233  and  _235
REMARK   95  A    between atoms: _235  and  _236
REMARK   96  A    between atoms: _235  and  _238
REMARK   97  A    between atoms: _238  and  _239
REMARK   98  A    between atoms: _239  and  _240
REMARK                            x       y       z     vdW  Elec       q    Type
REMARK                         _______ _______ _______ _____ _____    ______ ____
ROOT
ATOM      1  CA  ALA A   1       8.072  19.656  -5.706  0.00  0.00    +0.133 C 
ATOM      2  CB  ALA A   1       6.656  19.688  -5.173  0.00  0.00    +0.027 C 
ENDROOT
BRANCH   1   3
ATOM      3  N   ALA A   1       8.957  19.074  -4.704  0.00  0.00    -0.239 NA
ATOM      4  H   ALA A   1       8.770  19.273  -3.701  0.00  0.00    +0.142 HD
ENDBRANCH   1   3
BRANCH   1   5
ATOM      5  C   ALA A   1       8.516  21.073  -6.034  0.00  0.00    +0.224 C 
ATOM      6  O   ALA A   1       8.848  21.840  -5.141  0.00  0.00    -0.287 OA
ENDBRANCH   1   5
TORSDOF 2
REMARK  Name = ../refined-set-2016/2ccb/2ccb_pocket.pdb
REMARK  98 active torsions:
REMARK  status: ('A' for Active; 'I' for Inactive)
REMARK    1  A    between atoms: _1  and  _5
REMARK    2  A    between atoms: _5  and  _6
REMARK    3  A    between atoms: _5  and  _8
REMARK    4  A    between atoms: _11  and  _13
REMARK    5  A    between atoms: _13  and  _14
REMARK    6  A    between atoms: _13  and  _16
REMARK    7  A    between atoms: _16  and  _17
REMARK    8  A    between atoms: _23  and  _25
REMARK    9  A    between atoms: _25  and  _26
REMARK   10  A    between atoms: _25  and  _28
REMARK   11  A    between atoms: _28  and  _29
REMARK   12  A    between atoms: _29  and  _30
REMARK   13  A    between atoms: _30  and  _31
REMARK   14  A    between atoms: _31  and  _32
REMARK   15  A    between atoms: _36  and  _38
REMARK   16  A    between atoms: _38  and  _39
REMARK   17  A    between atoms: _38  and  _41
REMARK   18  A    between atoms: _44  and  _46
REMARK   19  A    between atoms: _46  and  _47
REMARK   20  A    between atoms: _46  and  _49
REMARK   21  A    between atoms: _52  and  _54
REMARK   22  A    between atoms: _54  and  _55
REMARK   23  A    between atoms: _54  and  _57
REMARK   24  A    between atoms: _57  and  _58
REMARK   25  A    between atoms: _68  and  _70
REMARK   26  A    between atoms: _70  and  _71
REMARK   27  A    between atoms: _74  and  _76
REMARK   28  A    between atoms: _76  and  _77
REMARK   29  A    between atoms: _76  and  _79
REMARK   30  A    between atoms: _79  and  _80
REMARK   31  A    between atoms: _80  and  _81
REMARK   32  A    between atoms: _84  and  _86
REMARK   33  A    between atoms: _86  and  _87
REMARK   34  A    between atoms: _86  and  _89
REMARK   35  A    between atoms: _92  and  _94
REMARK   36  A    between atoms: _94  and  _95
REMARK   37  A    between atoms: _94  and  _97
REMARK   38  A    between atoms: _97  and  _98
REMARK   39  A    between atoms: _98  and  _99
REMARK   40  A    between atoms: _104  and  _106
REMARK   41  A    between atoms: _106  and  _107
REMARK   42  A    between atoms: _110  and  _112
REMARK   43  A    between atoms: _112  and  _113
REMARK   44  A    between atoms: _112  and  _115
REMARK   45  A    between atoms: _115  and  _116
REMARK   46  A    between atoms: _116  and  _117
REMARK   47  A    between atoms: _120  and  _122
REMARK   48  A    between atoms: _122  and  _123
REMARK   49  A    between atoms: _122  and  _125
REMARK   50  A    between atoms: _125  and  _126
REMARK   51  A    between atoms: _129  and  _131
REMARK   52  A    between atoms: _131  and  _132
REMARK   53  A    between atoms: _131  and  _134
REMARK   54  A    between atoms: _134  and  _135
REMARK   55  A    between atoms: _138  and  _140
REMARK   56  A    between atoms: _140  and  _141
REMARK   57  A    between atoms: _140  and  _143
REMARK   58  A    between atoms: _143  and  _144
REMARK   59  A    between atoms: _147  and  _149
REMARK   60  A    between atoms: _149  and  _150
REMARK   61  A    between atoms: _149  and  _152
REMARK   62  A    between atoms: _152  and  _153
REMARK   63  A    between atoms: _153  and  _154
REMARK   64  A    between atoms: _159  and  _161
REMARK   65  A    between atoms: _161  and  _162
REMARK   66  A    between atoms: _164  and  _166
REMARK   67  A    between atoms: _166  and  _167
REMARK   68  A    between atoms: _166  and  _169
REMARK   69  A    between atoms: _172  and  _174
REMARK   70  A    between atoms: _174  and  _175
REMARK   71  A    between atoms: _174  and  _177
REMARK   72  A    between atoms: _177  and  _178
REMARK   73  A    between atoms: _178  and  _179
REMARK   74  A    between atoms: _182  and  _184
REMARK   75  A    between atoms: _184  and  _185
REMARK   76  A    between atoms: _184  and  _187
REMARK   77  A    between atoms: _187  and  _188
REMARK   78  A    between atoms: _191  and  _193
REMARK   79  A    between atoms: _193  and  _194
REMARK   80  A    between atoms: _196  and  _198
REMARK   81  A    between atoms: _198  and  _199
REMARK   82  A    between atoms: _202  and  _204
REMARK   83  A    between atoms: _204  and  _205
REMARK   84  A    between atoms: _204  and  _207
REMARK   85  A    between atoms: _210  and  _212
REMARK   86  A    between atoms: _212  and  _213
REMARK   87  A    between atoms: _212  and  _215
REMARK   88  A    between atoms: _215  and  _216
REMARK   89  A    between atoms: _219  and  _221
REMARK   90  A    between atoms: _221  and  _222
REMARK   91  A    between atoms: _221  and  _224
REMARK   92  A    between atoms: _224  and  _225
REMARK   93  A    between atoms: _230  and  _231
REMARK   94  A    between atoms: _233  and  _235
REMARK   95  A    between atoms: _235  and  _236
REMARK   96  A    between atoms: _235  and  _238
REMARK   97  A    between atoms: _238  and  _239
REMARK   98  A    between atoms: _239  and  _240
REMARK                            x       y       z     vdW  Elec       q    Type
REMARK                         _______ _______ _______ _____ _____    ______ ____
ROOT
ATOM      1  CA  GLU A   1       6.603  24.984  -9.837  0.00  0.00    +0.134 C 
ENDROOT
BRANCH   1   2
ATOM      2  N   GLU A   1       7.587  24.484  -8.884  0.00  0.00    -0.239 NA
ATOM      3  H   GLU A   1       8.078  25.146  -8.250  0.00  0.00    +0.142 HD
ENDBRANCH   1   2
BRANCH   1   4
ATOM      4  C   GLU A   1       7.283  25.287 -11.164  0.00  0.00    +0.224 C 
ATOM      5  O   GLU A   1       8.325  25.973 -11.216  0.00  0.00    -0.287 OA
ENDBRANCH   1   4
BRANCH   1   6
ATOM      6  CB  GLU A   1       5.855  26.215  -9.289  0.00  0.00    +0.037 C 
BRANCH   6   7
ATOM      7  CG  GLU A   1       4.612  26.580 -10.111  0.00  0.00    +0.116 C 
BRANCH   7   8
ATOM      8  CD  GLU A   1       3.617  27.472  -9.377  0.00  0.00    +0.365 C 
ATOM      9  OE2 GLU A   1       4.021  28.217  -8.451  0.00  0.00    -0.246 OA
ATOM     10  OE1 GLU A   1       2.409  27.435  -9.742  0.00  0.00    -0.246 OA
ENDBRANCH   7   8
ENDBRANCH   6   7
ENDBRANCH   1   6
TORSDOF 5
REMARK  Name = ../refined-set-2016/2ccb/2ccb_pocket.pdb
REMARK  98 active torsions:
REMARK  status: ('A' for Active; 'I' for Inactive)
REMARK    1  A    between atoms: _1  and  _5
REMARK    2  A    between atoms: _5  and  _6
REMARK    3  A    between atoms: _5  and  _8
REMARK    4  A    between atoms: _11  and  _13
REMARK    5  A    between atoms: _13  and  _14
REMARK    6  A    between atoms: _13  and  _16
REMARK    7  A    between atoms: _16  and  _17
REMARK    8  A    between atoms: _23  and  _25
REMARK    9  A    between atoms: _25  and  _26
REMARK   10  A    between atoms: _25  and  _28
REMARK   11  A    between atoms: _28  and  _29
REMARK   12  A    between atoms: _29  and  _30
REMARK   13  A    between atoms: _30  and  _31
REMARK   14  A    between atoms: _31  and  _32
REMARK   15  A    between atoms: _36  and  _38
REMARK   16  A    between atoms: _38  and  _39
REMARK   17  A    between atoms: _38  and  _41
REMARK   18  A    between atoms: _44  and  _46
REMARK   19  A    between atoms: _46  and  _47
REMARK   20  A    between atoms: _46  and  _49
REMARK   21  A    between atoms: _52  and  _54
REMARK   22  A    between atoms: _54  and  _55
REMARK   23  A    between atoms: _54  and  _57
REMARK   24  A    between atoms: _57  and  _58
REMARK   25  A    between atoms: _68  and  _70
REMARK   26  A    between atoms: _70  and  _71
REMARK   27  A    between atoms: _74  and  _76
REMARK   28  A    between atoms: _76  and  _77
REMARK   29  A    between atoms: _76  and  _79
REMARK   30  A    between atoms: _79  and  _80
REMARK   31  A    between atoms: _80  and  _81
REMARK   32  A    between atoms: _84  and  _86
REMARK   33  A    between atoms: _86  and  _87
REMARK   34  A    between atoms: _86  and  _89
REMARK   35  A    between atoms: _92  and  _94
REMARK   36  A    between atoms: _94  and  _95
REMARK   37  A    between atoms: _94  and  _97
REMARK   38  A    between atoms: _97  and  _98
REMARK   39  A    between atoms: _98  and  _99
REMARK   40  A    between atoms: _104  and  _106
REMARK   41  A    between atoms: _106  and  _107
REMARK   42  A    between atoms: _110  and  _112
REMARK   43  A    between atoms: _112  and  _113
REMARK   44  A    between atoms: _112  and  _115
REMARK   45  A    between atoms: _115  and  _116
REMARK   46  A    between atoms: _116  and  _117
REMARK   47  A    between atoms: _120  and  _122
REMARK   48  A    between atoms: _122  and  _123
REMARK   49  A    between atoms: _122  and  _125
REMARK   50  A    between atoms: _125  and  _126
REMARK   51  A    between atoms: _129  and  _131
REMARK   52  A    between atoms: _131  and  _132
REMARK   53  A    between atoms: _131  and  _134
REMARK   54  A    between atoms: _134  and  _135
REMARK   55  A    between atoms: _138  and  _140
REMARK   56  A    between atoms: _140  and  _141
REMARK   57  A    between atoms: _140  and  _143
REMARK   58  A    between atoms: _143  and  _144
REMARK   59  A    between atoms: _147  and  _149
REMARK   60  A    between atoms: _149  and  _150
REMARK   61  A    between atoms: _149  and  _152
REMARK   62  A    between atoms: _152  and  _153
REMARK   63  A    between atoms: _153  and  _154
REMARK   64  A    between atoms: _159  and  _161
REMARK   65  A    between atoms: _161  and  _162
REMARK   66  A    between atoms: _164  and  _166
REMARK   67  A    between atoms: _166  and  _167
REMARK   68  A    between atoms: _166  and  _169
REMARK   69  A    between atoms: _172  and  _174
REMARK   70  A    between atoms: _174  and  _175
REMARK   71  A    between atoms: _174  and  _177
REMARK   72  A    between atoms: _177  and  _178
REMARK   73  A    between atoms: _178  and  _179
REMARK   74  A    between atoms: _182  and  _184
REMARK   75  A    between atoms: _184  and  _185
REMARK   76  A    between atoms: _184  and  _187
REMARK   77  A    between atoms: _187  and  _188
REMARK   78  A    between atoms: _191  and  _193
REMARK   79  A    between atoms: _193  and  _194
REMARK   80  A    between atoms: _196  and  _198
REMARK   81  A    between atoms: _198  and  _199
REMARK   82  A    between atoms: _202  and  _204
REMARK   83  A    between atoms: _204  and  _205
REMARK   84  A    between atoms: _204  and  _207
REMARK   85  A    between atoms: _210  and  _212
REMARK   86  A    between atoms: _212  and  _213
REMARK   87  A    between atoms: _212  and  _215
REMARK   88  A    between atoms: _215  and  _216
REMARK   89  A    between atoms: _219  and  _221
REMARK   90  A    between atoms: _221  and  _222
REMARK   91  A    between atoms: _221  and  _224
REMARK   92  A    between atoms: _224  and  _225
REMARK   93  A    between atoms: _230  and  _231
REMARK   94  A    between atoms: _233  and  _235
REMARK   95  A    between atoms: _235  and  _236
REMARK   96  A    between atoms: _235  and  _238
REMARK   97  A    between atoms: _238  and  _239
REMARK   98  A    between atoms: _239  and  _240
REMARK                            x       y       z     vdW  Elec       q    Type
REMARK                         _______ _______ _______ _____ _____    ______ ____
ROOT
ATOM      1  CA  THR A   1      -0.926  17.702  11.085  0.00  0.00    +0.160 C 
ENDROOT
BRANCH   1   2
ATOM      2  N   THR A   1      -2.266  17.370  11.589  0.00  0.00    -0.237 NA
ATOM      3  H   THR A   1      -3.040  18.055  11.477  0.00  0.00    +0.142 HD
ENDBRANCH   1   2
BRANCH   1   4
ATOM      4  C   THR A   1      -0.309  18.784  11.949  0.00  0.00    +0.227 C 
ATOM      5  O   THR A   1      -0.790  19.897  11.954  0.00  0.00    -0.287 OA
ENDBRANCH   1   4
BRANCH   1   6
ATOM      6  CB  THR A   1      -1.019  18.186   9.628  0.00  0.00    +0.134 C 
ATOM      7  CG2 THR A   1       0.395  18.458   9.060  0.00  0.00    +0.034 C 
BRANCH   6   8
ATOM      8  OG1 THR A   1      -1.529  17.106   8.818  0.00  0.00    -0.383 OA
ATOM      9  HG1 THR A   1      -2.426  16.844   9.146  0.00  0.00    +0.210 HD
ENDBRANCH   6   8
ENDBRANCH   1   6
TORSDOF 4
REMARK  Name = ../refined-set-2016/2ccb/2ccb_pocket.pdb
REMARK  98 active torsions:
REMARK  status: ('A' for Active; 'I' for Inactive)
REMARK    1  A    between atoms: _1  and  _5
REMARK    2  A    between atoms: _5  and  _6
REMARK    3  A    between atoms: _5  and  _8
REMARK    4  A    between atoms: _11  and  _13
REMARK    5  A    between atoms: _13  and  _14
REMARK    6  A    between atoms: _13  and  _16
REMARK    7  A    between atoms: _16  and  _17
REMARK    8  A    between atoms: _23  and  _25
REMARK    9  A    between atoms: _25  and  _26
REMARK   10  A    between atoms: _25  and  _28
REMARK   11  A    between atoms: _28  and  _29
REMARK   12  A    between atoms: _29  and  _30
REMARK   13  A    between atoms: _30  and  _31
REMARK   14  A    between atoms: _31  and  _32
REMARK   15  A    between atoms: _36  and  _38
REMARK   16  A    between atoms: _38  and  _39
REMARK   17  A    between atoms: _38  and  _41
REMARK   18  A    between atoms: _44  and  _46
REMARK   19  A    between atoms: _46  and  _47
REMARK   20  A    between atoms: _46  and  _49
REMARK   21  A    between atoms: _52  and  _54
REMARK   22  A    between atoms: _54  and  _55
REMARK   23  A    between atoms: _54  and  _57
REMARK   24  A    between atoms: _57  and  _58
REMARK   25  A    between atoms: _68  and  _70
REMARK   26  A    between atoms: _70  and  _71
REMARK   27  A    between atoms: _74  and  _76
REMARK   28  A    between atoms: _76  and  _77
REMARK   29  A    between atoms: _76  and  _79
REMARK   30  A    between atoms: _79  and  _80
REMARK   31  A    between atoms: _80  and  _81
REMARK   32  A    between atoms: _84  and  _86
REMARK   33  A    between atoms: _86  and  _87
REMARK   34  A    between atoms: _86  and  _89
REMARK   35  A    between atoms: _92  and  _94
REMARK   36  A    between atoms: _94  and  _95
REMARK   37  A    between atoms: _94  and  _97
REMARK   38  A    between atoms: _97  and  _98
REMARK   39  A    between atoms: _98  and  _99
REMARK   40  A    between atoms: _104  and  _106
REMARK   41  A    between atoms: _106  and  _107
REMARK   42  A    between atoms: _110  and  _112
REMARK   43  A    between atoms: _112  and  _113
REMARK   44  A    between atoms: _112  and  _115
REMARK   45  A    between atoms: _115  and  _116
REMARK   46  A    between atoms: _116  and  _117
REMARK   47  A    between atoms: _120  and  _122
REMARK   48  A    between atoms: _122  and  _123
REMARK   49  A    between atoms: _122  and  _125
REMARK   50  A    between atoms: _125  and  _126
REMARK   51  A    between atoms: _129  and  _131
REMARK   52  A    between atoms: _131  and  _132
REMARK   53  A    between atoms: _131  and  _134
REMARK   54  A    between atoms: _134  and  _135
REMARK   55  A    between atoms: _138  and  _140
REMARK   56  A    between atoms: _140  and  _141
REMARK   57  A    between atoms: _140  and  _143
REMARK   58  A    between atoms: _143  and  _144
REMARK   59  A    between atoms: _147  and  _149
REMARK   60  A    between atoms: _149  and  _150
REMARK   61  A    between atoms: _149  and  _152
REMARK   62  A    between atoms: _152  and  _153
REMARK   63  A    between atoms: _153  and  _154
REMARK   64  A    between atoms: _159  and  _161
REMARK   65  A    between atoms: _161  and  _162
REMARK   66  A    between atoms: _164  and  _166
REMARK   67  A    between atoms: _166  and  _167
REMARK   68  A    between atoms: _166  and  _169
REMARK   69  A    between atoms: _172  and  _174
REMARK   70  A    between atoms: _174  and  _175
REMARK   71  A    between atoms: _174  and  _177
REMARK   72  A    between atoms: _177  and  _178
REMARK   73  A    between atoms: _178  and  _179
REMARK   74  A    between atoms: _182  and  _184
REMARK   75  A    between atoms: _184  and  _185
REMARK   76  A    between atoms: _184  and  _187
REMARK   77  A    between atoms: _187  and  _188
REMARK   78  A    between atoms: _191  and  _193
REMARK   79  A    between atoms: _193  and  _194
REMARK   80  A    between atoms: _196  and  _198
REMARK   81  A    between atoms: _198  and  _199
REMARK   82  A    between atoms: _202  and  _204
REMARK   83  A    between atoms: _204  and  _205
REMARK   84  A    between atoms: _204  and  _207
REMARK   85  A    between atoms: _210  and  _212
REMARK   86  A    between atoms: _212  and  _213
REMARK   87  A    between atoms: _212  and  _215
REMARK   88  A    between atoms: _215  and  _216
REMARK   89  A    between atoms: _219  and  _221
REMARK   90  A    between atoms: _221  and  _222
REMARK   91  A    between atoms: _221  and  _224
REMARK   92  A    between atoms: _224  and  _225
REMARK   93  A    between atoms: _230  and  _231
REMARK   94  A    between atoms: _233  and  _235
REMARK   95  A    between atoms: _235  and  _236
REMARK   96  A    between atoms: _235  and  _238
REMARK   97  A    between atoms: _238  and  _239
REMARK   98  A    between atoms: _239  and  _240
REMARK                            x       y       z     vdW  Elec       q    Type
REMARK                         _______ _______ _______ _____ _____    ______ ____
ROOT
ATOM      1  CA  THR A   1       4.102  21.941  12.337  0.00  0.00    +0.160 C 
ENDROOT
BRANCH   1   2
ATOM      2  N   THR A   1       3.027  21.242  13.036  0.00  0.00    -0.237 NA
ATOM      3  H   THR A   1       2.579  21.685  13.863  0.00  0.00    +0.142 HD
ENDBRANCH   1   2
BRANCH   1   4
ATOM      4  C   THR A   1       5.190  22.419  13.298  0.00  0.00    +0.227 C 
ATOM      5  O   THR A   1       4.936  22.686  14.472  0.00  0.00    -0.287 OA
ENDBRANCH   1   4
BRANCH   1   6
ATOM      6  CB  THR A   1       3.578  23.156  11.506  0.00  0.00    +0.134 C 
ATOM      7  CG2 THR A   1       2.341  22.791  10.668  0.00  0.00    +0.034 C 
BRANCH   6   8
ATOM      8  OG1 THR A   1       3.127  24.201  12.390  0.00  0.00    -0.383 OA
ATOM      9  HG1 THR A   1       2.395  23.856  12.960  0.00  0.00    +0.210 HD
ENDBRANCH   6   8
ENDBRANCH   1   6
TORSDOF 4
REMARK  Name = ../refined-set-2016/2ccb/2ccb_pocket.pdb
REMARK  98 active torsions:
REMARK  status: ('A' for Active; 'I' for Inactive)
REMARK    1  A    between atoms: _1  and  _5
REMARK    2  A    between atoms: _5  and  _6
REMARK    3  A    between atoms: _5  and  _8
REMARK    4  A    between atoms: _11  and  _13
REMARK    5  A    between atoms: _13  and  _14
REMARK    6  A    between atoms: _13  and  _16
REMARK    7  A    between atoms: _16  and  _17
REMARK    8  A    between atoms: _23  and  _25
REMARK    9  A    between atoms: _25  and  _26
REMARK   10  A    between atoms: _25  and  _28
REMARK   11  A    between atoms: _28  and  _29
REMARK   12  A    between atoms: _29  and  _30
REMARK   13  A    between atoms: _30  and  _31
REMARK   14  A    between atoms: _31  and  _32
REMARK   15  A    between atoms: _36  and  _38
REMARK   16  A    between atoms: _38  and  _39
REMARK   17  A    between atoms: _38  and  _41
REMARK   18  A    between atoms: _44  and  _46
REMARK   19  A    between atoms: _46  and  _47
REMARK   20  A    between atoms: _46  and  _49
REMARK   21  A    between atoms: _52  and  _54
REMARK   22  A    between atoms: _54  and  _55
REMARK   23  A    between atoms: _54  and  _57
REMARK   24  A    between atoms: _57  and  _58
REMARK   25  A    between atoms: _68  and  _70
REMARK   26  A    between atoms: _70  and  _71
REMARK   27  A    between atoms: _74  and  _76
REMARK   28  A    between atoms: _76  and  _77
REMARK   29  A    between atoms: _76  and  _79
REMARK   30  A    between atoms: _79  and  _80
REMARK   31  A    between atoms: _80  and  _81
REMARK   32  A    between atoms: _84  and  _86
REMARK   33  A    between atoms: _86  and  _87
REMARK   34  A    between atoms: _86  and  _89
REMARK   35  A    between atoms: _92  and  _94
REMARK   36  A    between atoms: _94  and  _95
REMARK   37  A    between atoms: _94  and  _97
REMARK   38  A    between atoms: _97  and  _98
REMARK   39  A    between atoms: _98  and  _99
REMARK   40  A    between atoms: _104  and  _106
REMARK   41  A    between atoms: _106  and  _107
REMARK   42  A    between atoms: _110  and  _112
REMARK   43  A    between atoms: _112  and  _113
REMARK   44  A    between atoms: _112  and  _115
REMARK   45  A    between atoms: _115  and  _116
REMARK   46  A    between atoms: _116  and  _117
REMARK   47  A    between atoms: _120  and  _122
REMARK   48  A    between atoms: _122  and  _123
REMARK   49  A    between atoms: _122  and  _125
REMARK   50  A    between atoms: _125  and  _126
REMARK   51  A    between atoms: _129  and  _131
REMARK   52  A    between atoms: _131  and  _132
REMARK   53  A    between atoms: _131  and  _134
REMARK   54  A    between atoms: _134  and  _135
REMARK   55  A    between atoms: _138  and  _140
REMARK   56  A    between atoms: _140  and  _141
REMARK   57  A    between atoms: _140  and  _143
REMARK   58  A    between atoms: _143  and  _144
REMARK   59  A    between atoms: _147  and  _149
REMARK   60  A    between atoms: _149  and  _150
REMARK   61  A    between atoms: _149  and  _152
REMARK   62  A    between atoms: _152  and  _153
REMARK   63  A    between atoms: _153  and  _154
REMARK   64  A    between atoms: _159  and  _161
REMARK   65  A    between atoms: _161  and  _162
REMARK   66  A    between atoms: _164  and  _166
REMARK   67  A    between atoms: _166  and  _167
REMARK   68  A    between atoms: _166  and  _169
REMARK   69  A    between atoms: _172  and  _174
REMARK   70  A    between atoms: _174  and  _175
REMARK   71  A    between atoms: _174  and  _177
REMARK   72  A    between atoms: _177  and  _178
REMARK   73  A    between atoms: _178  and  _179
REMARK   74  A    between atoms: _182  and  _184
REMARK   75  A    between atoms: _184  and  _185
REMARK   76  A    between atoms: _184  and  _187
REMARK   77  A    between atoms: _187  and  _188
REMARK   78  A    between atoms: _191  and  _193
REMARK   79  A    between atoms: _193  and  _194
REMARK   80  A    between atoms: _196  and  _198
REMARK   81  A    between atoms: _198  and  _199
REMARK   82  A    between atoms: _202  and  _204
REMARK   83  A    between atoms: _204  and  _205
REMARK   84  A    between atoms: _204  and  _207
REMARK   85  A    between atoms: _210  and  _212
REMARK   86  A    between atoms: _212  and  _213
REMARK   87  A    between atoms: _212  and  _215
REMARK   88  A    between atoms: _215  and  _216
REMARK   89  A    between atoms: _219  and  _221
REMARK   90  A    between atoms: _221  and  _222
REMARK   91  A    between atoms: _221  and  _224
REMARK   92  A    between atoms: _224  and  _225
REMARK   93  A    between atoms: _230  and  _231
REMARK   94  A    between atoms: _233  and  _235
REMARK   95  A    between atoms: _235  and  _236
REMARK   96  A    between atoms: _235  and  _238
REMARK   97  A    between atoms: _238  and  _239
REMARK   98  A    between atoms: _239  and  _240
REMARK                            x       y       z     vdW  Elec       q    Type
REMARK                         _______ _______ _______ _____ _____    ______ ____
ROOT
ATOM      1  C   VAL A   4       7.568  21.276   3.609  0.00  0.00    +0.241 C 
ATOM      2  N   GLU A   5       7.088  22.357   4.230  0.00  0.00    -0.297 N 
ATOM      3  H   GLU A   5       7.079  22.377   5.270  0.00  0.00    +0.150 HD
ATOM      4  O   VAL A   4       7.525  21.128   2.378  0.00  0.00    -0.273 OA
ENDROOT
BRANCH   2   5
ATOM      5  CA  GLU A   5       6.574  23.516   3.494  0.00  0.00    +0.149 C 
BRANCH   5   6
ATOM      6  C   GLU A   5       7.778  24.435   3.245  0.00  0.00    +0.241 C 
ATOM      7  O   GLU A   5       8.548  24.705   4.168  0.00  0.00    -0.273 OA
ATOM      8  N   ILE A   6       7.971  24.864   1.997  0.00  0.00    -0.297 N 
ATOM      9  H   ILE A   6       7.223  24.713   1.290  0.00  0.00    +0.150 HD
BRANCH   8  10
ATOM     10  CA  ILE A   6       9.211  25.544   1.590  0.00  0.00    +0.149 C 
BRANCH  10  11
ATOM     11  C   ILE A   6       8.921  26.910   0.940  0.00  0.00    +0.241 C 
ATOM     12  O   ILE A   6       9.443  27.928   1.391  0.00  0.00    -0.273 OA
ATOM     13  N   GLY A   7       8.084  26.934  -0.100  0.00  0.00    -0.295 N 
ATOM     14  H   GLY A   7       7.567  26.067  -0.350  0.00  0.00    +0.150 HD
BRANCH  13  15
ATOM     15  CA  GLY A   7       7.872  28.139  -0.898  0.00  0.00    +0.176 C 
BRANCH  15  16
ATOM     16  C   GLY A   7       6.544  28.857  -0.667  0.00  0.00    +0.243 C 
ATOM     17  N   ALA A   8       6.234  29.106   0.606  0.00  0.00    -0.297 N 
ATOM     18  H   ALA A   8       6.790  28.626   1.342  0.00  0.00    +0.150 HD
ATOM     19  O   GLY A   7       5.794  29.134  -1.627  0.00  0.00    -0.273 OA
BRANCH  17  20
ATOM     20  CA  ALA A   8       5.161  30.011   1.040  0.00  0.00    +0.149 C 
ATOM     21  CB  ALA A   8       3.790  29.330   0.976  0.00  0.00    +0.031 C 
BRANCH  20  22
ATOM     22  C   ALA A   8       5.454  30.492   2.469  0.00  0.00    +0.241 C 
ATOM     23  O   ALA A   8       4.650  31.213   3.081  0.00  0.00    -0.273 OA
ATOM     24  N   VAL A   9       6.611  30.082   2.991  0.00  0.00    -0.298 N 
ATOM     25  H   VAL A   9       7.244  29.497   2.409  0.00  0.00    +0.150 HD
BRANCH  24  26
ATOM     26  CA  VAL A   9       7.024  30.426   4.358  0.00  0.00    +0.137 C 
BRANCH  26  27
ATOM     27  CB  VAL A   9       6.987  29.189   5.301  0.00  0.00    +0.026 C 
ATOM     28  CG2 VAL A   9       5.549  28.831   5.683  0.00  0.00    +0.002 C 
ATOM     29  CG1 VAL A   9       7.710  27.984   4.668  0.00  0.00    +0.002 C 
ENDBRANCH  26  27
BRANCH  26  30
ATOM     30  C   VAL A   9       8.424  31.039   4.365  0.00  0.00    +0.227 C 
ATOM     31  O   VAL A   9       9.220  30.782   3.462  0.00  0.00    -0.286 OA
ENDBRANCH  26  30
ENDBRANCH  24  26
ENDBRANCH  20  22
ENDBRANCH  17  20
ENDBRANCH  15  16
ENDBRANCH  13  15
ENDBRANCH  10  11
BRANCH  10  32
ATOM     32  CB  ILE A   6      10.084  24.657   0.630  0.00  0.00    +0.027 C 
ATOM     33  CG2 ILE A   6      11.402  25.373   0.267  0.00  0.00    +0.002 C 
BRANCH  32  34
ATOM     34  CG1 ILE A   6      10.411  23.280   1.242  0.00  0.00    +0.002 C 
ATOM     35  CD1 ILE A   6      10.860  22.212   0.209  0.00  0.00    +0.000 C 
ENDBRANCH  32  34
ENDBRANCH  10  32
ENDBRANCH   8  10
ENDBRANCH   5   6
BRANCH   5  36
ATOM     36  CB  GLU A   5       5.461  24.213   4.300  0.00  0.00    +0.041 C 
BRANCH  36  37
ATOM     37  CG  GLU A   5       4.976  25.545   3.702  0.00  0.00    +0.116 C 
BRANCH  37  38
ATOM     38  CD  GLU A   5       4.389  25.421   2.297  0.00  0.00    +0.365 C 
ATOM     39  OE2 GLU A   5       4.151  24.293   1.818  0.00  0.00    -0.246 OA
ATOM     40  OE1 GLU A   5       4.151  26.471   1.662  0.00  0.00    -0.246 OA
ENDBRANCH  37  38
ENDBRANCH  36  37
ENDBRANCH   5  36
ENDBRANCH   2   5
BRANCH   1  41
ATOM     41  CA  VAL A   4       8.163  20.206   4.499  0.00  0.00    +0.149 C 
BRANCH  41  44
ATOM     42  C   GLY A   3       7.184  18.094   5.215  0.00  0.00    +0.243 C 
ATOM     43  O   GLY A   3       7.381  18.325   6.406  0.00  0.00    -0.273 OA
ATOM     44  N   VAL A   4       7.512  18.921   4.239  0.00  0.00    -0.297 N 
ATOM     45  H   VAL A   4       7.302  18.651   3.257  0.00  0.00    +0.150 HD
BRANCH  42  46
ATOM     46  CA  GLY A   3       6.561  16.774   4.766  0.00  0.00    +0.176 C 
BRANCH  46  48
ATOM     47  C   GLN A   2       6.104  14.627   5.734  0.00  0.00    +0.241 C 
ATOM     48  N   GLY A   3       6.283  15.933   5.911  0.00  0.00    -0.295 N 
ATOM     49  H   GLY A   3       6.224  16.346   6.864  0.00  0.00    +0.150 HD
ATOM     50  O   GLN A   2       6.180  14.088   4.629  0.00  0.00    -0.273 OA
BRANCH  47  51
ATOM     51  CA  GLN A   2       5.816  13.820   6.979  0.00  0.00    +0.149 C 
BRANCH  51  54
ATOM     52  C   ASP A   1       3.901  12.336   7.388  0.00  0.00    +0.239 C 
ATOM     53  O   ASP A   1       3.695  12.776   8.532  0.00  0.00    -0.274 OA
ATOM     54  N   GLN A   2       4.916  12.708   6.608  0.00  0.00    -0.297 N 
ATOM     55  H   GLN A   2       5.079  12.202   5.714  0.00  0.00    +0.150 HD
BRANCH  52  56
ATOM     56  CA  ASP A   1       2.971  11.301   6.793  0.00  0.00    +0.156 C 
BRANCH  56  57
ATOM     57  N   ASP A   1       2.351  10.557   7.915  0.00  0.00    -0.238 NA
ATOM     58  H   ASP A   1       2.438  10.925   8.884  0.00  0.00    +0.142 HD
ENDBRANCH  56  57
BRANCH  56  59
ATOM     59  CB  ASP A   1       1.925  12.072   5.966  0.00  0.00    +0.140 C 
BRANCH  59  60
ATOM     60  CG  ASP A   1       1.910  11.707   4.476  0.00  0.00    +0.367 C 
ATOM     61  OD2 ASP A   1       2.597  10.755   4.018  0.00  0.00    -0.246 OA
ATOM     62  OD1 ASP A   1       1.179  12.352   3.673  0.00  0.00    -0.246 OA
ENDBRANCH  59  60
ENDBRANCH  56  59
ENDBRANCH  52  56
ENDBRANCH  51  54
BRANCH  51  63
ATOM     63  CB  GLN A   2       7.135  13.316   7.561  0.00  0.00    +0.039 C 
BRANCH  63  64
ATOM     64  CG  GLN A   2       6.938  12.657   8.925  0.00  0.00    +0.087 C 
BRANCH  64  65
ATOM     65  CD  GLN A   2       8.134  11.894   9.361  0.00  0.00    +0.219 C 
ATOM     66  NE2 GLN A   2       8.672  12.281  10.477  0.00  0.00    -0.329 N 
ATOM     67 HE21 GLN A   2       8.306  13.122  10.967  0.00  0.00    +0.145 HD
ATOM     68 HE22 GLN A   2       9.469  11.750  10.882  0.00  0.00    +0.145 HD
ATOM     69  OE1 GLN A   2       8.519  10.911   8.735  0.00  0.00    -0.275 OA
ENDBRANCH  64  65
ENDBRANCH  63  64
ENDBRANCH  51  63
ENDBRANCH  47  51
ENDBRANCH  46  48
ENDBRANCH  42  46
ENDBRANCH  41  44
BRANCH  41  70
ATOM     70  CB  VAL A   4       9.705  20.134   4.240  0.00  0.00    +0.027 C 
ATOM     71  CG2 VAL A   4      10.331  18.929   4.912  0.00  0.00    +0.002 C 
ATOM     72  CG1 VAL A   4      10.386  21.427   4.760  0.00  0.00    +0.002 C 
ENDBRANCH  41  70
ENDBRANCH   1  41
TORSDOF 30
REMARK  Name = ../refined-set-2016/2ccb/2ccb_pocket.pdb
REMARK  98 active torsions:
REMARK  status: ('A' for Active; 'I' for Inactive)
REMARK    1  A    between atoms: _1  and  _5
REMARK    2  A    between atoms: _5  and  _6
REMARK    3  A    between atoms: _5  and  _8
REMARK    4  A    between atoms: _11  and  _13
REMARK    5  A    between atoms: _13  and  _14
REMARK    6  A    between atoms: _13  and  _16
REMARK    7  A    between atoms: _16  and  _17
REMARK    8  A    between atoms: _23  and  _25
REMARK    9  A    between atoms: _25  and  _26
REMARK   10  A    between atoms: _25  and  _28
REMARK   11  A    between atoms: _28  and  _29
REMARK   12  A    between atoms: _29  and  _30
REMARK   13  A    between atoms: _30  and  _31
REMARK   14  A    between atoms: _31  and  _32
REMARK   15  A    between atoms: _36  and  _38
REMARK   16  A    between atoms: _38  and  _39
REMARK   17  A    between atoms: _38  and  _41
REMARK   18  A    between atoms: _44  and  _46
REMARK   19  A    between atoms: _46  and  _47
REMARK   20  A    between atoms: _46  and  _49
REMARK   21  A    between atoms: _52  and  _54
REMARK   22  A    between atoms: _54  and  _55
REMARK   23  A    between atoms: _54  and  _57
REMARK   24  A    between atoms: _57  and  _58
REMARK   25  A    between atoms: _68  and  _70
REMARK   26  A    between atoms: _70  and  _71
REMARK   27  A    between atoms: _74  and  _76
REMARK   28  A    between atoms: _76  and  _77
REMARK   29  A    between atoms: _76  and  _79
REMARK   30  A    between atoms: _79  and  _80
REMARK   31  A    between atoms: _80  and  _81
REMARK   32  A    between atoms: _84  and  _86
REMARK   33  A    between atoms: _86  and  _87
REMARK   34  A    between atoms: _86  and  _89
REMARK   35  A    between atoms: _92  and  _94
REMARK   36  A    between atoms: _94  and  _95
REMARK   37  A    between atoms: _94  and  _97
REMARK   38  A    between atoms: _97  and  _98
REMARK   39  A    between atoms: _98  and  _99
REMARK   40  A    between atoms: _104  and  _106
REMARK   41  A    between atoms: _106  and  _107
REMARK   42  A    between atoms: _110  and  _112
REMARK   43  A    between atoms: _112  and  _113
REMARK   44  A    between atoms: _112  and  _115
REMARK   45  A    between atoms: _115  and  _116
REMARK   46  A    between atoms: _116  and  _117
REMARK   47  A    between atoms: _120  and  _122
REMARK   48  A    between atoms: _122  and  _123
REMARK   49  A    between atoms: _122  and  _125
REMARK   50  A    between atoms: _125  and  _126
REMARK   51  A    between atoms: _129  and  _131
REMARK   52  A    between atoms: _131  and  _132
REMARK   53  A    between atoms: _131  and  _134
REMARK   54  A    between atoms: _134  and  _135
REMARK   55  A    between atoms: _138  and  _140
REMARK   56  A    between atoms: _140  and  _141
REMARK   57  A    between atoms: _140  and  _143
REMARK   58  A    between atoms: _143  and  _144
REMARK   59  A    between atoms: _147  and  _149
REMARK   60  A    between atoms: _149  and  _150
REMARK   61  A    between atoms: _149  and  _152
REMARK   62  A    between atoms: _152  and  _153
REMARK   63  A    between atoms: _153  and  _154
REMARK   64  A    between atoms: _159  and  _161
REMARK   65  A    between atoms: _161  and  _162
REMARK   66  A    between atoms: _164  and  _166
REMARK   67  A    between atoms: _166  and  _167
REMARK   68  A    between atoms: _166  and  _169
REMARK   69  A    between atoms: _172  and  _174
REMARK   70  A    between atoms: _174  and  _175
REMARK   71  A    between atoms: _174  and  _177
REMARK   72  A    between atoms: _177  and  _178
REMARK   73  A    between atoms: _178  and  _179
REMARK   74  A    between atoms: _182  and  _184
REMARK   75  A    between atoms: _184  and  _185
REMARK   76  A    between atoms: _184  and  _187
REMARK   77  A    between atoms: _187  and  _188
REMARK   78  A    between atoms: _191  and  _193
REMARK   79  A    between atoms: _193  and  _194
REMARK   80  A    between atoms: _196  and  _198
REMARK   81  A    between atoms: _198  and  _199
REMARK   82  A    between atoms: _202  and  _204
REMARK   83  A    between atoms: _204  and  _205
REMARK   84  A    between atoms: _204  and  _207
REMARK   85  A    between atoms: _210  and  _212
REMARK   86  A    between atoms: _212  and  _213
REMARK   87  A    between atoms: _212  and  _215
REMARK   88  A    between atoms: _215  and  _216
REMARK   89  A    between atoms: _219  and  _221
REMARK   90  A    between atoms: _221  and  _222
REMARK   91  A    between atoms: _221  and  _224
REMARK   92  A    between atoms: _224  and  _225
REMARK   93  A    between atoms: _230  and  _231
REMARK   94  A    between atoms: _233  and  _235
REMARK   95  A    between atoms: _235  and  _236
REMARK   96  A    between atoms: _235  and  _238
REMARK   97  A    between atoms: _238  and  _239
REMARK   98  A    between atoms: _239  and  _240
REMARK                            x       y       z     vdW  Elec       q    Type
REMARK                         _______ _______ _______ _____ _____    ______ ____
ROOT
ATOM      1  CA  TYR A   2       8.474  20.613   9.041  0.00  0.00    +0.153 C 
ENDROOT
BRANCH   1   3
ATOM      2  C   THR A   1       8.128  22.813   8.033  0.00  0.00    +0.241 C 
ATOM      3  N   TYR A   2       8.613  22.070   9.025  0.00  0.00    -0.297 N 
ATOM      4  H   TYR A   2       9.105  22.539   9.812  0.00  0.00    +0.150 HD
ATOM      5  O   THR A   1       7.548  22.345   7.039  0.00  0.00    -0.274 OA
BRANCH   2   6
ATOM      6  CA  THR A   1       8.347  24.316   8.165  0.00  0.00    +0.172 C 
BRANCH   6   7
ATOM      7  N   THR A   1       9.205  24.777   7.090  0.00  0.00    -0.236 NA
ATOM      8  H   THR A   1       8.914  24.631   6.102  0.00  0.00    +0.142 HD
ENDBRANCH   6   7
BRANCH   6   9
ATOM      9  CB  THR A   1       7.038  25.070   8.118  0.00  0.00    +0.135 C 
ATOM     10  CG2 THR A   1       6.139  24.649   9.248  0.00  0.00    +0.034 C 
BRANCH   9  11
ATOM     11  OG1 THR A   1       7.315  26.475   8.366  0.00  0.00    -0.383 OA
ATOM     12  HG1 THR A   1       6.468  26.987   8.339  0.00  0.00    +0.210 HD
ENDBRANCH   9  11
ENDBRANCH   6   9
ENDBRANCH   2   6
ENDBRANCH   1   3
BRANCH   1  13
ATOM     13  C   TYR A   2       7.055  20.286   9.479  0.00  0.00    +0.241 C 
ATOM     14  O   TYR A   2       6.481  20.960  10.336  0.00  0.00    -0.273 OA
ATOM     15  N   GLN A   3       6.484  19.247   8.868  0.00  0.00    -0.298 N 
ATOM     16  H   GLN A   3       7.010  18.725   8.138  0.00  0.00    +0.150 HD
BRANCH  15  17
ATOM     17  CA  GLN A   3       5.133  18.839   9.214  0.00  0.00    +0.137 C 
BRANCH  17  18
ATOM     18  C   GLN A   3       5.113  17.345   9.465  0.00  0.00    +0.227 C 
ATOM     19  O   GLN A   3       5.755  16.572   8.752  0.00  0.00    -0.286 OA
ENDBRANCH  17  18
BRANCH  17  20
ATOM     20  CB  GLN A   3       4.160  19.174   8.074  0.00  0.00    +0.037 C 
BRANCH  20  21
ATOM     21  CG  GLN A   3       4.123  20.687   7.757  0.00  0.00    +0.087 C 
BRANCH  21  22
ATOM     22  CD  GLN A   3       2.981  21.050   6.829  0.00  0.00    +0.219 C 
ATOM     23  NE2 GLN A   3       2.798  22.330   6.599  0.00  0.00    -0.329 N 
ATOM     24 HE21 GLN A   3       3.406  23.034   7.064  0.00  0.00    +0.145 HD
ATOM     25 HE22 GLN A   3       2.045  22.640   5.952  0.00  0.00    +0.145 HD
ATOM     26  OE1 GLN A   3       2.301  20.172   6.314  0.00  0.00    -0.275 OA
ENDBRANCH  21  22
ENDBRANCH  20  21
ENDBRANCH  17  20
ENDBRANCH  15  17
ENDBRANCH   1  13
BRANCH   1  27
ATOM     27  CB  TYR A   2       9.542  19.951   9.938  0.00  0.00    +0.055 C 
BRANCH  27  28
ATOM     28  CG  TYR A   2      10.870  20.500   9.530  0.00  0.00    -0.020 A 
ATOM     29  CD2 TYR A   2      11.419  21.591  10.203  0.00  0.00    -0.001 A 
ATOM     30  CE2 TYR A   2      12.621  22.150   9.782  0.00  0.00    +0.036 A 
ATOM     31  CZ  TYR A   2      13.244  21.647   8.657  0.00  0.00    +0.134 A 
ATOM     32  CE1 TYR A   2      12.722  20.567   7.973  0.00  0.00    +0.036 A 
ATOM     33  CD1 TYR A   2      11.528  20.012   8.401  0.00  0.00    -0.001 A 
BRANCH  31  34
ATOM     34  OH  TYR A   2      14.413  22.219   8.200  0.00  0.00    -0.506 OA
ATOM     35  HH  TYR A   2      15.136  21.542   8.209  0.00  0.00    +0.292 HD
ENDBRANCH  31  34
ENDBRANCH  27  28
ENDBRANCH   1  27
TORSDOF 14
REMARK  Name = ../refined-set-2016/2ccb/2ccb_pocket.pdb
REMARK  98 active torsions:
REMARK  status: ('A' for Active; 'I' for Inactive)
REMARK    1  A    between atoms: _1  and  _5
REMARK    2  A    between atoms: _5  and  _6
REMARK    3  A    between atoms: _5  and  _8
REMARK    4  A    between atoms: _11  and  _13
REMARK    5  A    between atoms: _13  and  _14
REMARK    6  A    between atoms: _13  and  _16
REMARK    7  A    between atoms: _16  and  _17
REMARK    8  A    between atoms: _23  and  _25
REMARK    9  A    between atoms: _25  and  _26
REMARK   10  A    between atoms: _25  and  _28
REMARK   11  A    between atoms: _28  and  _29
REMARK   12  A    between atoms: _29  and  _30
REMARK   13  A    between atoms: _30  and  _31
REMARK   14  A    between atoms: _31  and  _32
REMARK   15  A    between atoms: _36  and  _38
REMARK   16  A    between atoms: _38  and  _39
REMARK   17  A    between atoms: _38  and  _41
REMARK   18  A    between atoms: _44  and  _46
REMARK   19  A    between atoms: _46  and  _47
REMARK   20  A    between atoms: _46  and  _49
REMARK   21  A    between atoms: _52  and  _54
REMARK   22  A    between atoms: _54  and  _55
REMARK   23  A    between atoms: _54  and  _57
REMARK   24  A    between atoms: _57  and  _58
REMARK   25  A    between atoms: _68  and  _70
REMARK   26  A    between atoms: _70  and  _71
REMARK   27  A    between atoms: _74  and  _76
REMARK   28  A    between atoms: _76  and  _77
REMARK   29  A    between atoms: _76  and  _79
REMARK   30  A    between atoms: _79  and  _80
REMARK   31  A    between atoms: _80  and  _81
REMARK   32  A    between atoms: _84  and  _86
REMARK   33  A    between atoms: _86  and  _87
REMARK   34  A    between atoms: _86  and  _89
REMARK   35  A    between atoms: _92  and  _94
REMARK   36  A    between atoms: _94  and  _95
REMARK   37  A    between atoms: _94  and  _97
REMARK   38  A    between atoms: _97  and  _98
REMARK   39  A    between atoms: _98  and  _99
REMARK   40  A    between atoms: _104  and  _106
REMARK   41  A    between atoms: _106  and  _107
REMARK   42  A    between atoms: _110  and  _112
REMARK   43  A    between atoms: _112  and  _113
REMARK   44  A    between atoms: _112  and  _115
REMARK   45  A    between atoms: _115  and  _116
REMARK   46  A    between atoms: _116  and  _117
REMARK   47  A    between atoms: _120  and  _122
REMARK   48  A    between atoms: _122  and  _123
REMARK   49  A    between atoms: _122  and  _125
REMARK   50  A    between atoms: _125  and  _126
REMARK   51  A    between atoms: _129  and  _131
REMARK   52  A    between atoms: _131  and  _132
REMARK   53  A    between atoms: _131  and  _134
REMARK   54  A    between atoms: _134  and  _135
REMARK   55  A    between atoms: _138  and  _140
REMARK   56  A    between atoms: _140  and  _141
REMARK   57  A    between atoms: _140  and  _143
REMARK   58  A    between atoms: _143  and  _144
REMARK   59  A    between atoms: _147  and  _149
REMARK   60  A    between atoms: _149  and  _150
REMARK   61  A    between atoms: _149  and  _152
REMARK   62  A    between atoms: _152  and  _153
REMARK   63  A    between atoms: _153  and  _154
REMARK   64  A    between atoms: _159  and  _161
REMARK   65  A    between atoms: _161  and  _162
REMARK   66  A    between atoms: _164  and  _166
REMARK   67  A    between atoms: _166  and  _167
REMARK   68  A    between atoms: _166  and  _169
REMARK   69  A    between atoms: _172  and  _174
REMARK   70  A    between atoms: _174  and  _175
REMARK   71  A    between atoms: _174  and  _177
REMARK   72  A    between atoms: _177  and  _178
REMARK   73  A    between atoms: _178  and  _179
REMARK   74  A    between atoms: _182  and  _184
REMARK   75  A    between atoms: _184  and  _185
REMARK   76  A    between atoms: _184  and  _187
REMARK   77  A    between atoms: _187  and  _188
REMARK   78  A    between atoms: _191  and  _193
REMARK   79  A    between atoms: _193  and  _194
REMARK   80  A    between atoms: _196  and  _198
REMARK   81  A    between atoms: _198  and  _199
REMARK   82  A    between atoms: _202  and  _204
REMARK   83  A    between atoms: _204  and  _205
REMARK   84  A    between atoms: _204  and  _207
REMARK   85  A    between atoms: _210  and  _212
REMARK   86  A    between atoms: _212  and  _213
REMARK   87  A    between atoms: _212  and  _215
REMARK   88  A    between atoms: _215  and  _216
REMARK   89  A    between atoms: _219  and  _221
REMARK   90  A    between atoms: _221  and  _222
REMARK   91  A    between atoms: _221  and  _224
REMARK   92  A    between atoms: _224  and  _225
REMARK   93  A    between atoms: _230  and  _231
REMARK   94  A    between atoms: _233  and  _235
REMARK   95  A    between atoms: _235  and  _236
REMARK   96  A    between atoms: _235  and  _238
REMARK   97  A    between atoms: _238  and  _239
REMARK   98  A    between atoms: _239  and  _240
REMARK                            x       y       z     vdW  Elec       q    Type
REMARK                         _______ _______ _______ _____ _____    ______ ____
ROOT
ATOM      1 MG   UNL     1      -0.215  14.381  -3.301  0.00  0.00    +0.000 Mg
ATOM      2  O   UNL     1       0.761  16.360  -2.564  0.00  0.00    +0.000 OA
ATOM      3  O   UNL     1       1.550  13.050  -2.893  0.00  0.00    +0.000 OA
ENDROOT
TORSDOF 0
REMARK  Name = ../refined-set-2016/2ccb/2ccb_pocket.pdb
REMARK  98 active torsions:
REMARK  status: ('A' for Active; 'I' for Inactive)
REMARK    1  A    between atoms: _1  and  _5
REMARK    2  A    between atoms: _5  and  _6
REMARK    3  A    between atoms: _5  and  _8
REMARK    4  A    between atoms: _11  and  _13
REMARK    5  A    between atoms: _13  and  _14
REMARK    6  A    between atoms: _13  and  _16
REMARK    7  A    between atoms: _16  and  _17
REMARK    8  A    between atoms: _23  and  _25
REMARK    9  A    between atoms: _25  and  _26
REMARK   10  A    between atoms: _25  and  _28
REMARK   11  A    between atoms: _28  and  _29
REMARK   12  A    between atoms: _29  and  _30
REMARK   13  A    between atoms: _30  and  _31
REMARK   14  A    between atoms: _31  and  _32
REMARK   15  A    between atoms: _36  and  _38
REMARK   16  A    between atoms: _38  and  _39
REMARK   17  A    between atoms: _38  and  _41
REMARK   18  A    between atoms: _44  and  _46
REMARK   19  A    between atoms: _46  and  _47
REMARK   20  A    between atoms: _46  and  _49
REMARK   21  A    between atoms: _52  and  _54
REMARK   22  A    between atoms: _54  and  _55
REMARK   23  A    between atoms: _54  and  _57
REMARK   24  A    between atoms: _57  and  _58
REMARK   25  A    between atoms: _68  and  _70
REMARK   26  A    between atoms: _70  and  _71
REMARK   27  A    between atoms: _74  and  _76
REMARK   28  A    between atoms: _76  and  _77
REMARK   29  A    between atoms: _76  and  _79
REMARK   30  A    between atoms: _79  and  _80
REMARK   31  A    between atoms: _80  and  _81
REMARK   32  A    between atoms: _84  and  _86
REMARK   33  A    between atoms: _86  and  _87
REMARK   34  A    between atoms: _86  and  _89
REMARK   35  A    between atoms: _92  and  _94
REMARK   36  A    between atoms: _94  and  _95
REMARK   37  A    between atoms: _94  and  _97
REMARK   38  A    between atoms: _97  and  _98
REMARK   39  A    between atoms: _98  and  _99
REMARK   40  A    between atoms: _104  and  _106
REMARK   41  A    between atoms: _106  and  _107
REMARK   42  A    between atoms: _110  and  _112
REMARK   43  A    between atoms: _112  and  _113
REMARK   44  A    between atoms: _112  and  _115
REMARK   45  A    between atoms: _115  and  _116
REMARK   46  A    between atoms: _116  and  _117
REMARK   47  A    between atoms: _120  and  _122
REMARK   48  A    between atoms: _122  and  _123
REMARK   49  A    between atoms: _122  and  _125
REMARK   50  A    between atoms: _125  and  _126
REMARK   51  A    between atoms: _129  and  _131
REMARK   52  A    between atoms: _131  and  _132
REMARK   53  A    between atoms: _131  and  _134
REMARK   54  A    between atoms: _134  and  _135
REMARK   55  A    between atoms: _138  and  _140
REMARK   56  A    between atoms: _140  and  _141
REMARK   57  A    between atoms: _140  and  _143
REMARK   58  A    between atoms: _143  and  _144
REMARK   59  A    between atoms: _147  and  _149
REMARK   60  A    between atoms: _149  and  _150
REMARK   61  A    between atoms: _149  and  _152
REMARK   62  A    between atoms: _152  and  _153
REMARK   63  A    between atoms: _153  and  _154
REMARK   64  A    between atoms: _159  and  _161
REMARK   65  A    between atoms: _161  and  _162
REMARK   66  A    between atoms: _164  and  _166
REMARK   67  A    between atoms: _166  and  _167
REMARK   68  A    between atoms: _166  and  _169
REMARK   69  A    between atoms: _172  and  _174
REMARK   70  A    between atoms: _174  and  _175
REMARK   71  A    between atoms: _174  and  _177
REMARK   72  A    between atoms: _177  and  _178
REMARK   73  A    between atoms: _178  and  _179
REMARK   74  A    between atoms: _182  and  _184
REMARK   75  A    between atoms: _184  and  _185
REMARK   76  A    between atoms: _184  and  _187
REMARK   77  A    between atoms: _187  and  _188
REMARK   78  A    between atoms: _191  and  _193
REMARK   79  A    between atoms: _193  and  _194
REMARK   80  A    between atoms: _196  and  _198
REMARK   81  A    between atoms: _198  and  _199
REMARK   82  A    between atoms: _202  and  _204
REMARK   83  A    between atoms: _204  and  _205
REMARK   84  A    between atoms: _204  and  _207
REMARK   85  A    between atoms: _210  and  _212
REMARK   86  A    between atoms: _212  and  _213
REMARK   87  A    between atoms: _212  and  _215
REMARK   88  A    between atoms: _215  and  _216
REMARK   89  A    between atoms: _219  and  _221
REMARK   90  A    between atoms: _221  and  _222
REMARK   91  A    between atoms: _221  and  _224
REMARK   92  A    between atoms: _224  and  _225
REMARK   93  A    between atoms: _230  and  _231
REMARK   94  A    between atoms: _233  and  _235
REMARK   95  A    between atoms: _235  and  _236
REMARK   96  A    between atoms: _235  and  _238
REMARK   97  A    between atoms: _238  and  _239
REMARK   98  A    between atoms: _239  and  _240
REMARK                            x       y       z     vdW  Elec       q    Type
REMARK                         _______ _______ _______ _____ _____    ______ ____
ROOT
ATOM      1  O   HOH     1       0.315  28.189  -6.447  0.00  0.00    +0.000 OA
ENDROOT
TORSDOF 0
REMARK  Name = ../refined-set-2016/2ccb/2ccb_pocket.pdb
REMARK  98 active torsions:
REMARK  status: ('A' for Active; 'I' for Inactive)
REMARK    1  A    between atoms: _1  and  _5
REMARK    2  A    between atoms: _5  and  _6
REMARK    3  A    between atoms: _5  and  _8
REMARK    4  A    between atoms: _11  and  _13
REMARK    5  A    between atoms: _13  and  _14
REMARK    6  A    between atoms: _13  and  _16
REMARK    7  A    between atoms: _16  and  _17
REMARK    8  A    between atoms: _23  and  _25
REMARK    9  A    between atoms: _25  and  _26
REMARK   10  A    between atoms: _25  and  _28
REMARK   11  A    between atoms: _28  and  _29
REMARK   12  A    between atoms: _29  and  _30
REMARK   13  A    between atoms: _30  and  _31
REMARK   14  A    between atoms: _31  and  _32
REMARK   15  A    between atoms: _36  and  _38
REMARK   16  A    between atoms: _38  and  _39
REMARK   17  A    between atoms: _38  and  _41
REMARK   18  A    between atoms: _44  and  _46
REMARK   19  A    between atoms: _46  and  _47
REMARK   20  A    between atoms: _46  and  _49
REMARK   21  A    between atoms: _52  and  _54
REMARK   22  A    between atoms: _54  and  _55
REMARK   23  A    between atoms: _54  and  _57
REMARK   24  A    between atoms: _57  and  _58
REMARK   25  A    between atoms: _68  and  _70
REMARK   26  A    between atoms: _70  and  _71
REMARK   27  A    between atoms: _74  and  _76
REMARK   28  A    between atoms: _76  and  _77
REMARK   29  A    between atoms: _76  and  _79
REMARK   30  A    between atoms: _79  and  _80
REMARK   31  A    between atoms: _80  and  _81
REMARK   32  A    between atoms: _84  and  _86
REMARK   33  A    between atoms: _86  and  _87
REMARK   34  A    between atoms: _86  and  _89
REMARK   35  A    between atoms: _92  and  _94
REMARK   36  A    between atoms: _94  and  _95
REMARK   37  A    between atoms: _94  and  _97
REMARK   38  A    between atoms: _97  and  _98
REMARK   39  A    between atoms: _98  and  _99
REMARK   40  A    between atoms: _104  and  _106
REMARK   41  A    between atoms: _106  and  _107
REMARK   42  A    between atoms: _110  and  _112
REMARK   43  A    between atoms: _112  and  _113
REMARK   44  A    between atoms: _112  and  _115
REMARK   45  A    between atoms: _115  and  _116
REMARK   46  A    between atoms: _116  and  _117
REMARK   47  A    between atoms: _120  and  _122
REMARK   48  A    between atoms: _122  and  _123
REMARK   49  A    between atoms: _122  and  _125
REMARK   50  A    between atoms: _125  and  _126
REMARK   51  A    between atoms: _129  and  _131
REMARK   52  A    between atoms: _131  and  _132
REMARK   53  A    between atoms: _131  and  _134
REMARK   54  A    between atoms: _134  and  _135
REMARK   55  A    between atoms: _138  and  _140
REMARK   56  A    between atoms: _140  and  _141
REMARK   57  A    between atoms: _140  and  _143
REMARK   58  A    between atoms: _143  and  _144
REMARK   59  A    between atoms: _147  and  _149
REMARK   60  A    between atoms: _149  and  _150
REMARK   61  A    between atoms: _149  and  _152
REMARK   62  A    between atoms: _152  and  _153
REMARK   63  A    between atoms: _153  and  _154
REMARK   64  A    between atoms: _159  and  _161
REMARK   65  A    between atoms: _161  and  _162
REMARK   66  A    between atoms: _164  and  _166
REMARK   67  A    between atoms: _166  and  _167
REMARK   68  A    between atoms: _166  and  _169
REMARK   69  A    between atoms: _172  and  _174
REMARK   70  A    between atoms: _174  and  _175
REMARK   71  A    between atoms: _174  and  _177
REMARK   72  A    between atoms: _177  and  _178
REMARK   73  A    between atoms: _178  and  _179
REMARK   74  A    between atoms: _182  and  _184
REMARK   75  A    between atoms: _184  and  _185
REMARK   76  A    between atoms: _184  and  _187
REMARK   77  A    between atoms: _187  and  _188
REMARK   78  A    between atoms: _191  and  _193
REMARK   79  A    between atoms: _193  and  _194
REMARK   80  A    between atoms: _196  and  _198
REMARK   81  A    between atoms: _198  and  _199
REMARK   82  A    between atoms: _202  and  _204
REMARK   83  A    between atoms: _204  and  _205
REMARK   84  A    between atoms: _204  and  _207
REMARK   85  A    between atoms: _210  and  _212
REMARK   86  A    between atoms: _212  and  _213
REMARK   87  A    between atoms: _212  and  _215
REMARK   88  A    between atoms: _215  and  _216
REMARK   89  A    between atoms: _219  and  _221
REMARK   90  A    between atoms: _221  and  _222
REMARK   91  A    between atoms: _221  and  _224
REMARK   92  A    between atoms: _224  and  _225
REMARK   93  A    between atoms: _230  and  _231
REMARK   94  A    between atoms: _233  and  _235
REMARK   95  A    between atoms: _235  and  _236
REMARK   96  A    between atoms: _235  and  _238
REMARK   97  A    between atoms: _238  and  _239
REMARK   98  A    between atoms: _239  and  _240
REMARK                            x       y       z     vdW  Elec       q    Type
REMARK                         _______ _______ _______ _____ _____    ______ ____
ROOT
ATOM      1  O   HOH     1       7.566  29.677  -5.828  0.00  0.00    +0.000 OA
ENDROOT
TORSDOF 0
REMARK  Name = ../refined-set-2016/2ccb/2ccb_pocket.pdb
REMARK  98 active torsions:
REMARK  status: ('A' for Active; 'I' for Inactive)
REMARK    1  A    between atoms: _1  and  _5
REMARK    2  A    between atoms: _5  and  _6
REMARK    3  A    between atoms: _5  and  _8
REMARK    4  A    between atoms: _11  and  _13
REMARK    5  A    between atoms: _13  and  _14
REMARK    6  A    between atoms: _13  and  _16
REMARK    7  A    between atoms: _16  and  _17
REMARK    8  A    between atoms: _23  and  _25
REMARK    9  A    between atoms: _25  and  _26
REMARK   10  A    between atoms: _25  and  _28
REMARK   11  A    between atoms: _28  and  _29
REMARK   12  A    between atoms: _29  and  _30
REMARK   13  A    between atoms: _30  and  _31
REMARK   14  A    between atoms: _31  and  _32
REMARK   15  A    between atoms: _36  and  _38
REMARK   16  A    between atoms: _38  and  _39
REMARK   17  A    between atoms: _38  and  _41
REMARK   18  A    between atoms: _44  and  _46
REMARK   19  A    between atoms: _46  and  _47
REMARK   20  A    between atoms: _46  and  _49
REMARK   21  A    between atoms: _52  and  _54
REMARK   22  A    between atoms: _54  and  _55
REMARK   23  A    between atoms: _54  and  _57
REMARK   24  A    between atoms: _57  and  _58
REMARK   25  A    between atoms: _68  and  _70
REMARK   26  A    between atoms: _70  and  _71
REMARK   27  A    between atoms: _74  and  _76
REMARK   28  A    between atoms: _76  and  _77
REMARK   29  A    between atoms: _76  and  _79
REMARK   30  A    between atoms: _79  and  _80
REMARK   31  A    between atoms: _80  and  _81
REMARK   32  A    between atoms: _84  and  _86
REMARK   33  A    between atoms: _86  and  _87
REMARK   34  A    between atoms: _86  and  _89
REMARK   35  A    between atoms: _92  and  _94
REMARK   36  A    between atoms: _94  and  _95
REMARK   37  A    between atoms: _94  and  _97
REMARK   38  A    between atoms: _97  and  _98
REMARK   39  A    between atoms: _98  and  _99
REMARK   40  A    between atoms: _104  and  _106
REMARK   41  A    between atoms: _106  and  _107
REMARK   42  A    between atoms: _110  and  _112
REMARK   43  A    between atoms: _112  and  _113
REMARK   44  A    between atoms: _112  and  _115
REMARK   45  A    between atoms: _115  and  _116
REMARK   46  A    between atoms: _116  and  _117
REMARK   47  A    between atoms: _120  and  _122
REMARK   48  A    between atoms: _122  and  _123
REMARK   49  A    between atoms: _122  and  _125
REMARK   50  A    between atoms: _125  and  _126
REMARK   51  A    between atoms: _129  and  _131
REMARK   52  A    between atoms: _131  and  _132
REMARK   53  A    between atoms: _131  and  _134
REMARK   54  A    between atoms: _134  and  _135
REMARK   55  A    between atoms: _138  and  _140
REMARK   56  A    between atoms: _140  and  _141
REMARK   57  A    between atoms: _140  and  _143
REMARK   58  A    between atoms: _143  and  _144
REMARK   59  A    between atoms: _147  and  _149
REMARK   60  A    between atoms: _149  and  _150
REMARK   61  A    between atoms: _149  and  _152
REMARK   62  A    between atoms: _152  and  _153
REMARK   63  A    between atoms: _153  and  _154
REMARK   64  A    between atoms: _159  and  _161
REMARK   65  A    between atoms: _161  and  _162
REMARK   66  A    between atoms: _164  and  _166
REMARK   67  A    between atoms: _166  and  _167
REMARK   68  A    between atoms: _166  and  _169
REMARK   69  A    between atoms: _172  and  _174
REMARK   70  A    between atoms: _174  and  _175
REMARK   71  A    between atoms: _174  and  _177
REMARK   72  A    between atoms: _177  and  _178
REMARK   73  A    between atoms: _178  and  _179
REMARK   74  A    between atoms: _182  and  _184
REMARK   75  A    between atoms: _184  and  _185
REMARK   76  A    between atoms: _184  and  _187
REMARK   77  A    between atoms: _187  and  _188
REMARK   78  A    between atoms: _191  and  _193
REMARK   79  A    between atoms: _193  and  _194
REMARK   80  A    between atoms: _196  and  _198
REMARK   81  A    between atoms: _198  and  _199
REMARK   82  A    between atoms: _202  and  _204
REMARK   83  A    between atoms: _204  and  _205
REMARK   84  A    between atoms: _204  and  _207
REMARK   85  A    between atoms: _210  and  _212
REMARK   86  A    between atoms: _212  and  _213
REMARK   87  A    between atoms: _212  and  _215
REMARK   88  A    between atoms: _215  and  _216
REMARK   89  A    between atoms: _219  and  _221
REMARK   90  A    between atoms: _221  and  _222
REMARK   91  A    between atoms: _221  and  _224
REMARK   92  A    between atoms: _224  and  _225
REMARK   93  A    between atoms: _230  and  _231
REMARK   94  A    between atoms: _233  and  _235
REMARK   95  A    between atoms: _235  and  _236
REMARK   96  A    between atoms: _235  and  _238
REMARK   97  A    between atoms: _238  and  _239
REMARK   98  A    between atoms: _239  and  _240
REMARK                            x       y       z     vdW  Elec       q    Type
REMARK                         _______ _______ _______ _____ _____    ______ ____
ROOT
ATOM      1  O   HOH     1       9.445  28.836  -4.021  0.00  0.00    +0.000 OA
ENDROOT
TORSDOF 0
REMARK  Name = ../refined-set-2016/2ccb/2ccb_pocket.pdb
REMARK  98 active torsions:
REMARK  status: ('A' for Active; 'I' for Inactive)
REMARK    1  A    between atoms: _1  and  _5
REMARK    2  A    between atoms: _5  and  _6
REMARK    3  A    between atoms: _5  and  _8
REMARK    4  A    between atoms: _11  and  _13
REMARK    5  A    between atoms: _13  and  _14
REMARK    6  A    between atoms: _13  and  _16
REMARK    7  A    between atoms: _16  and  _17
REMARK    8  A    between atoms: _23  and  _25
REMARK    9  A    between atoms: _25  and  _26
REMARK   10  A    between atoms: _25  and  _28
REMARK   11  A    between atoms: _28  and  _29
REMARK   12  A    between atoms: _29  and  _30
REMARK   13  A    between atoms: _30  and  _31
REMARK   14  A    between atoms: _31  and  _32
REMARK   15  A    between atoms: _36  and  _38
REMARK   16  A    between atoms: _38  and  _39
REMARK   17  A    between atoms: _38  and  _41
REMARK   18  A    between atoms: _44  and  _46
REMARK   19  A    between atoms: _46  and  _47
REMARK   20  A    between atoms: _46  and  _49
REMARK   21  A    between atoms: _52  and  _54
REMARK   22  A    between atoms: _54  and  _55
REMARK   23  A    between atoms: _54  and  _57
REMARK   24  A    between atoms: _57  and  _58
REMARK   25  A    between atoms: _68  and  _70
REMARK   26  A    between atoms: _70  and  _71
REMARK   27  A    between atoms: _74  and  _76
REMARK   28  A    between atoms: _76  and  _77
REMARK   29  A    between atoms: _76  and  _79
REMARK   30  A    between atoms: _79  and  _80
REMARK   31  A    between atoms: _80  and  _81
REMARK   32  A    between atoms: _84  and  _86
REMARK   33  A    between atoms: _86  and  _87
REMARK   34  A    between atoms: _86  and  _89
REMARK   35  A    between atoms: _92  and  _94
REMARK   36  A    between atoms: _94  and  _95
REMARK   37  A    between atoms: _94  and  _97
REMARK   38  A    between atoms: _97  and  _98
REMARK   39  A    between atoms: _98  and  _99
REMARK   40  A    between atoms: _104  and  _106
REMARK   41  A    between atoms: _106  and  _107
REMARK   42  A    between atoms: _110  and  _112
REMARK   43  A    between atoms: _112  and  _113
REMARK   44  A    between atoms: _112  and  _115
REMARK   45  A    between atoms: _115  and  _116
REMARK   46  A    between atoms: _116  and  _117
REMARK   47  A    between atoms: _120  and  _122
REMARK   48  A    between atoms: _122  and  _123
REMARK   49  A    between atoms: _122  and  _125
REMARK   50  A    between atoms: _125  and  _126
REMARK   51  A    between atoms: _129  and  _131
REMARK   52  A    between atoms: _131  and  _132
REMARK   53  A    between atoms: _131  and  _134
REMARK   54  A    between atoms: _134  and  _135
REMARK   55  A    between atoms: _138  and  _140
REMARK   56  A    between atoms: _140  and  _141
REMARK   57  A    between atoms: _140  and  _143
REMARK   58  A    between atoms: _143  and  _144
REMARK   59  A    between atoms: _147  and  _149
REMARK   60  A    between atoms: _149  and  _150
REMARK   61  A    between atoms: _149  and  _152
REMARK   62  A    between atoms: _152  and  _153
REMARK   63  A    between atoms: _153  and  _154
REMARK   64  A    between atoms: _159  and  _161
REMARK   65  A    between atoms: _161  and  _162
REMARK   66  A    between atoms: _164  and  _166
REMARK   67  A    between atoms: _166  and  _167
REMARK   68  A    between atoms: _166  and  _169
REMARK   69  A    between atoms: _172  and  _174
REMARK   70  A    between atoms: _174  and  _175
REMARK   71  A    between atoms: _174  and  _177
REMARK   72  A    between atoms: _177  and  _178
REMARK   73  A    between atoms: _178  and  _179
REMARK   74  A    between atoms: _182  and  _184
REMARK   75  A    between atoms: _184  and  _185
REMARK   76  A    between atoms: _184  and  _187
REMARK   77  A    between atoms: _187  and  _188
REMARK   78  A    between atoms: _191  and  _193
REMARK   79  A    between atoms: _193  and  _194
REMARK   80  A    between atoms: _196  and  _198
REMARK   81  A    between atoms: _198  and  _199
REMARK   82  A    between atoms: _202  and  _204
REMARK   83  A    between atoms: _204  and  _205
REMARK   84  A    between atoms: _204  and  _207
REMARK   85  A    between atoms: _210  and  _212
REMARK   86  A    between atoms: _212  and  _213
REMARK   87  A    between atoms: _212  and  _215
REMARK   88  A    between atoms: _215  and  _216
REMARK   89  A    between atoms: _219  and  _221
REMARK   90  A    between atoms: _221  and  _222
REMARK   91  A    between atoms: _221  and  _224
REMARK   92  A    between atoms: _224  and  _225
REMARK   93  A    between atoms: _230  and  _231
REMARK   94  A    between atoms: _233  and  _235
REMARK   95  A    between atoms: _235  and  _236
REMARK   96  A    between atoms: _235  and  _238
REMARK   97  A    between atoms: _238  and  _239
REMARK   98  A    between atoms: _239  and  _240
REMARK                            x       y       z     vdW  Elec       q    Type
REMARK                         _______ _______ _______ _____ _____    ______ ____
ROOT
ATOM      1  O   HOH     1       0.861  15.028   0.926  0.00  0.00    +0.000 OA
ENDROOT
TORSDOF 0
REMARK  Name = ../refined-set-2016/2ccb/2ccb_pocket.pdb
REMARK  98 active torsions:
REMARK  status: ('A' for Active; 'I' for Inactive)
REMARK    1  A    between atoms: _1  and  _5
REMARK    2  A    between atoms: _5  and  _6
REMARK    3  A    between atoms: _5  and  _8
REMARK    4  A    between atoms: _11  and  _13
REMARK    5  A    between atoms: _13  and  _14
REMARK    6  A    between atoms: _13  and  _16
REMARK    7  A    between atoms: _16  and  _17
REMARK    8  A    between atoms: _23  and  _25
REMARK    9  A    between atoms: _25  and  _26
REMARK   10  A    between atoms: _25  and  _28
REMARK   11  A    between atoms: _28  and  _29
REMARK   12  A    between atoms: _29  and  _30
REMARK   13  A    between atoms: _30  and  _31
REMARK   14  A    between atoms: _31  and  _32
REMARK   15  A    between atoms: _36  and  _38
REMARK   16  A    between atoms: _38  and  _39
REMARK   17  A    between atoms: _38  and  _41
REMARK   18  A    between atoms: _44  and  _46
REMARK   19  A    between atoms: _46  and  _47
REMARK   20  A    between atoms: _46  and  _49
REMARK   21  A    between atoms: _52  and  _54
REMARK   22  A    between atoms: _54  and  _55
REMARK   23  A    between atoms: _54  and  _57
REMARK   24  A    between atoms: _57  and  _58
REMARK   25  A    between atoms: _68  and  _70
REMARK   26  A    between atoms: _70  and  _71
REMARK   27  A    between atoms: _74  and  _76
REMARK   28  A    between atoms: _76  and  _77
REMARK   29  A    between atoms: _76  and  _79
REMARK   30  A    between atoms: _79  and  _80
REMARK   31  A    between atoms: _80  and  _81
REMARK   32  A    between atoms: _84  and  _86
REMARK   33  A    between atoms: _86  and  _87
REMARK   34  A    between atoms: _86  and  _89
REMARK   35  A    between atoms: _92  and  _94
REMARK   36  A    between atoms: _94  and  _95
REMARK   37  A    between atoms: _94  and  _97
REMARK   38  A    between atoms: _97  and  _98
REMARK   39  A    between atoms: _98  and  _99
REMARK   40  A    between atoms: _104  and  _106
REMARK   41  A    between atoms: _106  and  _107
REMARK   42  A    between atoms: _110  and  _112
REMARK   43  A    between atoms: _112  and  _113
REMARK   44  A    between atoms: _112  and  _115
REMARK   45  A    between atoms: _115  and  _116
REMARK   46  A    between atoms: _116  and  _117
REMARK   47  A    between atoms: _120  and  _122
REMARK   48  A    between atoms: _122  and  _123
REMARK   49  A    between atoms: _122  and  _125
REMARK   50  A    between atoms: _125  and  _126
REMARK   51  A    between atoms: _129  and  _131
REMARK   52  A    between atoms: _131  and  _132
REMARK   53  A    between atoms: _131  and  _134
REMARK   54  A    between atoms: _134  and  _135
REMARK   55  A    between atoms: _138  and  _140
REMARK   56  A    between atoms: _140  and  _141
REMARK   57  A    between atoms: _140  and  _143
REMARK   58  A    between atoms: _143  and  _144
REMARK   59  A    between atoms: _147  and  _149
REMARK   60  A    between atoms: _149  and  _150
REMARK   61  A    between atoms: _149  and  _152
REMARK   62  A    between atoms: _152  and  _153
REMARK   63  A    between atoms: _153  and  _154
REMARK   64  A    between atoms: _159  and  _161
REMARK   65  A    between atoms: _161  and  _162
REMARK   66  A    between atoms: _164  and  _166
REMARK   67  A    between atoms: _166  and  _167
REMARK   68  A    between atoms: _166  and  _169
REMARK   69  A    between atoms: _172  and  _174
REMARK   70  A    between atoms: _174  and  _175
REMARK   71  A    between atoms: _174  and  _177
REMARK   72  A    between atoms: _177  and  _178
REMARK   73  A    between atoms: _178  and  _179
REMARK   74  A    between atoms: _182  and  _184
REMARK   75  A    between atoms: _184  and  _185
REMARK   76  A    between atoms: _184  and  _187
REMARK   77  A    between atoms: _187  and  _188
REMARK   78  A    between atoms: _191  and  _193
REMARK   79  A    between atoms: _193  and  _194
REMARK   80  A    between atoms: _196  and  _198
REMARK   81  A    between atoms: _198  and  _199
REMARK   82  A    between atoms: _202  and  _204
REMARK   83  A    between atoms: _204  and  _205
REMARK   84  A    between atoms: _204  and  _207
REMARK   85  A    between atoms: _210  and  _212
REMARK   86  A    between atoms: _212  and  _213
REMARK   87  A    between atoms: _212  and  _215
REMARK   88  A    between atoms: _215  and  _216
REMARK   89  A    between atoms: _219  and  _221
REMARK   90  A    between atoms: _221  and  _222
REMARK   91  A    between atoms: _221  and  _224
REMARK   92  A    between atoms: _224  and  _225
REMARK   93  A    between atoms: _230  and  _231
REMARK   94  A    between atoms: _233  and  _235
REMARK   95  A    between atoms: _235  and  _236
REMARK   96  A    between atoms: _235  and  _238
REMARK   97  A    between atoms: _238  and  _239
REMARK   98  A    between atoms: _239  and  _240
REMARK                            x       y       z     vdW  Elec       q    Type
REMARK                         _______ _______ _______ _____ _____    ______ ____
ROOT
ATOM      1  O   HOH     1       4.943  12.374  -3.587  0.00  0.00    +0.000 OA
ENDROOT
TORSDOF 0
REMARK  Name = ../refined-set-2016/2ccb/2ccb_pocket.pdb
REMARK  98 active torsions:
REMARK  status: ('A' for Active; 'I' for Inactive)
REMARK    1  A    between atoms: _1  and  _5
REMARK    2  A    between atoms: _5  and  _6
REMARK    3  A    between atoms: _5  and  _8
REMARK    4  A    between atoms: _11  and  _13
REMARK    5  A    between atoms: _13  and  _14
REMARK    6  A    between atoms: _13  and  _16
REMARK    7  A    between atoms: _16  and  _17
REMARK    8  A    between atoms: _23  and  _25
REMARK    9  A    between atoms: _25  and  _26
REMARK   10  A    between atoms: _25  and  _28
REMARK   11  A    between atoms: _28  and  _29
REMARK   12  A    between atoms: _29  and  _30
REMARK   13  A    between atoms: _30  and  _31
REMARK   14  A    between atoms: _31  and  _32
REMARK   15  A    between atoms: _36  and  _38
REMARK   16  A    between atoms: _38  and  _39
REMARK   17  A    between atoms: _38  and  _41
REMARK   18  A    between atoms: _44  and  _46
REMARK   19  A    between atoms: _46  and  _47
REMARK   20  A    between atoms: _46  and  _49
REMARK   21  A    between atoms: _52  and  _54
REMARK   22  A    between atoms: _54  and  _55
REMARK   23  A    between atoms: _54  and  _57
REMARK   24  A    between atoms: _57  and  _58
REMARK   25  A    between atoms: _68  and  _70
REMARK   26  A    between atoms: _70  and  _71
REMARK   27  A    between atoms: _74  and  _76
REMARK   28  A    between atoms: _76  and  _77
REMARK   29  A    between atoms: _76  and  _79
REMARK   30  A    between atoms: _79  and  _80
REMARK   31  A    between atoms: _80  and  _81
REMARK   32  A    between atoms: _84  and  _86
REMARK   33  A    between atoms: _86  and  _87
REMARK   34  A    between atoms: _86  and  _89
REMARK   35  A    between atoms: _92  and  _94
REMARK   36  A    between atoms: _94  and  _95
REMARK   37  A    between atoms: _94  and  _97
REMARK   38  A    between atoms: _97  and  _98
REMARK   39  A    between atoms: _98  and  _99
REMARK   40  A    between atoms: _104  and  _106
REMARK   41  A    between atoms: _106  and  _107
REMARK   42  A    between atoms: _110  and  _112
REMARK   43  A    between atoms: _112  and  _113
REMARK   44  A    between atoms: _112  and  _115
REMARK   45  A    between atoms: _115  and  _116
REMARK   46  A    between atoms: _116  and  _117
REMARK   47  A    between atoms: _120  and  _122
REMARK   48  A    between atoms: _122  and  _123
REMARK   49  A    between atoms: _122  and  _125
REMARK   50  A    between atoms: _125  and  _126
REMARK   51  A    between atoms: _129  and  _131
REMARK   52  A    between atoms: _131  and  _132
REMARK   53  A    between atoms: _131  and  _134
REMARK   54  A    between atoms: _134  and  _135
REMARK   55  A    between atoms: _138  and  _140
REMARK   56  A    between atoms: _140  and  _141
REMARK   57  A    between atoms: _140  and  _143
REMARK   58  A    between atoms: _143  and  _144
REMARK   59  A    between atoms: _147  and  _149
REMARK   60  A    between atoms: _149  and  _150
REMARK   61  A    between atoms: _149  and  _152
REMARK   62  A    between atoms: _152  and  _153
REMARK   63  A    between atoms: _153  and  _154
REMARK   64  A    between atoms: _159  and  _161
REMARK   65  A    between atoms: _161  and  _162
REMARK   66  A    between atoms: _164  and  _166
REMARK   67  A    between atoms: _166  and  _167
REMARK   68  A    between atoms: _166  and  _169
REMARK   69  A    between atoms: _172  and  _174
REMARK   70  A    between atoms: _174  and  _175
REMARK   71  A    between atoms: _174  and  _177
REMARK   72  A    between atoms: _177  and  _178
REMARK   73  A    between atoms: _178  and  _179
REMARK   74  A    between atoms: _182  and  _184
REMARK   75  A    between atoms: _184  and  _185
REMARK   76  A    between atoms: _184  and  _187
REMARK   77  A    between atoms: _187  and  _188
REMARK   78  A    between atoms: _191  and  _193
REMARK   79  A    between atoms: _193  and  _194
REMARK   80  A    between atoms: _196  and  _198
REMARK   81  A    between atoms: _198  and  _199
REMARK   82  A    between atoms: _202  and  _204
REMARK   83  A    between atoms: _204  and  _205
REMARK   84  A    between atoms: _204  and  _207
REMARK   85  A    between atoms: _210  and  _212
REMARK   86  A    between atoms: _212  and  _213
REMARK   87  A    between atoms: _212  and  _215
REMARK   88  A    between atoms: _215  and  _216
REMARK   89  A    between atoms: _219  and  _221
REMARK   90  A    between atoms: _221  and  _222
REMARK   91  A    between atoms: _221  and  _224
REMARK   92  A    between atoms: _224  and  _225
REMARK   93  A    between atoms: _230  and  _231
REMARK   94  A    between atoms: _233  and  _235
REMARK   95  A    between atoms: _235  and  _236
REMARK   96  A    between atoms: _235  and  _238
REMARK   97  A    between atoms: _238  and  _239
REMARK   98  A    between atoms: _239  and  _240
REMARK                            x       y       z     vdW  Elec       q    Type
REMARK                         _______ _______ _______ _____ _____    ______ ____
ROOT
ATOM      1  O   HOH     1       5.484  10.679   4.576  0.00  0.00    +0.000 OA
ENDROOT
TORSDOF 0
REMARK  Name = ../refined-set-2016/2ccb/2ccb_pocket.pdb
REMARK  98 active torsions:
REMARK  status: ('A' for Active; 'I' for Inactive)
REMARK    1  A    between atoms: _1  and  _5
REMARK    2  A    between atoms: _5  and  _6
REMARK    3  A    between atoms: _5  and  _8
REMARK    4  A    between atoms: _11  and  _13
REMARK    5  A    between atoms: _13  and  _14
REMARK    6  A    between atoms: _13  and  _16
REMARK    7  A    between atoms: _16  and  _17
REMARK    8  A    between atoms: _23  and  _25
REMARK    9  A    between atoms: _25  and  _26
REMARK   10  A    between atoms: _25  and  _28
REMARK   11  A    between atoms: _28  and  _29
REMARK   12  A    between atoms: _29  and  _30
REMARK   13  A    between atoms: _30  and  _31
REMARK   14  A    between atoms: _31  and  _32
REMARK   15  A    between atoms: _36  and  _38
REMARK   16  A    between atoms: _38  and  _39
REMARK   17  A    between atoms: _38  and  _41
REMARK   18  A    between atoms: _44  and  _46
REMARK   19  A    between atoms: _46  and  _47
REMARK   20  A    between atoms: _46  and  _49
REMARK   21  A    between atoms: _52  and  _54
REMARK   22  A    between atoms: _54  and  _55
REMARK   23  A    between atoms: _54  and  _57
REMARK   24  A    between atoms: _57  and  _58
REMARK   25  A    between atoms: _68  and  _70
REMARK   26  A    between atoms: _70  and  _71
REMARK   27  A    between atoms: _74  and  _76
REMARK   28  A    between atoms: _76  and  _77
REMARK   29  A    between atoms: _76  and  _79
REMARK   30  A    between atoms: _79  and  _80
REMARK   31  A    between atoms: _80  and  _81
REMARK   32  A    between atoms: _84  and  _86
REMARK   33  A    between atoms: _86  and  _87
REMARK   34  A    between atoms: _86  and  _89
REMARK   35  A    between atoms: _92  and  _94
REMARK   36  A    between atoms: _94  and  _95
REMARK   37  A    between atoms: _94  and  _97
REMARK   38  A    between atoms: _97  and  _98
REMARK   39  A    between atoms: _98  and  _99
REMARK   40  A    between atoms: _104  and  _106
REMARK   41  A    between atoms: _106  and  _107
REMARK   42  A    between atoms: _110  and  _112
REMARK   43  A    between atoms: _112  and  _113
REMARK   44  A    between atoms: _112  and  _115
REMARK   45  A    between atoms: _115  and  _116
REMARK   46  A    between atoms: _116  and  _117
REMARK   47  A    between atoms: _120  and  _122
REMARK   48  A    between atoms: _122  and  _123
REMARK   49  A    between atoms: _122  and  _125
REMARK   50  A    between atoms: _125  and  _126
REMARK   51  A    between atoms: _129  and  _131
REMARK   52  A    between atoms: _131  and  _132
REMARK   53  A    between atoms: _131  and  _134
REMARK   54  A    between atoms: _134  and  _135
REMARK   55  A    between atoms: _138  and  _140
REMARK   56  A    between atoms: _140  and  _141
REMARK   57  A    between atoms: _140  and  _143
REMARK   58  A    between atoms: _143  and  _144
REMARK   59  A    between atoms: _147  and  _149
REMARK   60  A    between atoms: _149  and  _150
REMARK   61  A    between atoms: _149  and  _152
REMARK   62  A    between atoms: _152  and  _153
REMARK   63  A    between atoms: _153  and  _154
REMARK   64  A    between atoms: _159  and  _161
REMARK   65  A    between atoms: _161  and  _162
REMARK   66  A    between atoms: _164  and  _166
REMARK   67  A    between atoms: _166  and  _167
REMARK   68  A    between atoms: _166  and  _169
REMARK   69  A    between atoms: _172  and  _174
REMARK   70  A    between atoms: _174  and  _175
REMARK   71  A    between atoms: _174  and  _177
REMARK   72  A    between atoms: _177  and  _178
REMARK   73  A    between atoms: _178  and  _179
REMARK   74  A    between atoms: _182  and  _184
REMARK   75  A    between atoms: _184  and  _185
REMARK   76  A    between atoms: _184  and  _187
REMARK   77  A    between atoms: _187  and  _188
REMARK   78  A    between atoms: _191  and  _193
REMARK   79  A    between atoms: _193  and  _194
REMARK   80  A    between atoms: _196  and  _198
REMARK   81  A    between atoms: _198  and  _199
REMARK   82  A    between atoms: _202  and  _204
REMARK   83  A    between atoms: _204  and  _205
REMARK   84  A    between atoms: _204  and  _207
REMARK   85  A    between atoms: _210  and  _212
REMARK   86  A    between atoms: _212  and  _213
REMARK   87  A    between atoms: _212  and  _215
REMARK   88  A    between atoms: _215  and  _216
REMARK   89  A    between atoms: _219  and  _221
REMARK   90  A    between atoms: _221  and  _222
REMARK   91  A    between atoms: _221  and  _224
REMARK   92  A    between atoms: _224  and  _225
REMARK   93  A    between atoms: _230  and  _231
REMARK   94  A    between atoms: _233  and  _235
REMARK   95  A    between atoms: _235  and  _236
REMARK   96  A    between atoms: _235  and  _238
REMARK   97  A    between atoms: _238  and  _239
REMARK   98  A    between atoms: _239  and  _240
REMARK                            x       y       z     vdW  Elec       q    Type
REMARK                         _______ _______ _______ _____ _____    ______ ____
ROOT
ATOM      1  O   HOH     1       4.564  10.364   1.122  0.00  0.00    +0.000 OA
ENDROOT
TORSDOF 0
REMARK  Name = ../refined-set-2016/2ccb/2ccb_pocket.pdb
REMARK  98 active torsions:
REMARK  status: ('A' for Active; 'I' for Inactive)
REMARK    1  A    between atoms: _1  and  _5
REMARK    2  A    between atoms: _5  and  _6
REMARK    3  A    between atoms: _5  and  _8
REMARK    4  A    between atoms: _11  and  _13
REMARK    5  A    between atoms: _13  and  _14
REMARK    6  A    between atoms: _13  and  _16
REMARK    7  A    between atoms: _16  and  _17
REMARK    8  A    between atoms: _23  and  _25
REMARK    9  A    between atoms: _25  and  _26
REMARK   10  A    between atoms: _25  and  _28
REMARK   11  A    between atoms: _28  and  _29
REMARK   12  A    between atoms: _29  and  _30
REMARK   13  A    between atoms: _30  and  _31
REMARK   14  A    between atoms: _31  and  _32
REMARK   15  A    between atoms: _36  and  _38
REMARK   16  A    between atoms: _38  and  _39
REMARK   17  A    between atoms: _38  and  _41
REMARK   18  A    between atoms: _44  and  _46
REMARK   19  A    between atoms: _46  and  _47
REMARK   20  A    between atoms: _46  and  _49
REMARK   21  A    between atoms: _52  and  _54
REMARK   22  A    between atoms: _54  and  _55
REMARK   23  A    between atoms: _54  and  _57
REMARK   24  A    between atoms: _57  and  _58
REMARK   25  A    between atoms: _68  and  _70
REMARK   26  A    between atoms: _70  and  _71
REMARK   27  A    between atoms: _74  and  _76
REMARK   28  A    between atoms: _76  and  _77
REMARK   29  A    between atoms: _76  and  _79
REMARK   30  A    between atoms: _79  and  _80
REMARK   31  A    between atoms: _80  and  _81
REMARK   32  A    between atoms: _84  and  _86
REMARK   33  A    between atoms: _86  and  _87
REMARK   34  A    between atoms: _86  and  _89
REMARK   35  A    between atoms: _92  and  _94
REMARK   36  A    between atoms: _94  and  _95
REMARK   37  A    between atoms: _94  and  _97
REMARK   38  A    between atoms: _97  and  _98
REMARK   39  A    between atoms: _98  and  _99
REMARK   40  A    between atoms: _104  and  _106
REMARK   41  A    between atoms: _106  and  _107
REMARK   42  A    between atoms: _110  and  _112
REMARK   43  A    between atoms: _112  and  _113
REMARK   44  A    between atoms: _112  and  _115
REMARK   45  A    between atoms: _115  and  _116
REMARK   46  A    between atoms: _116  and  _117
REMARK   47  A    between atoms: _120  and  _122
REMARK   48  A    between atoms: _122  and  _123
REMARK   49  A    between atoms: _122  and  _125
REMARK   50  A    between atoms: _125  and  _126
REMARK   51  A    between atoms: _129  and  _131
REMARK   52  A    between atoms: _131  and  _132
REMARK   53  A    between atoms: _131  and  _134
REMARK   54  A    between atoms: _134  and  _135
REMARK   55  A    between atoms: _138  and  _140
REMARK   56  A    between atoms: _140  and  _141
REMARK   57  A    between atoms: _140  and  _143
REMARK   58  A    between atoms: _143  and  _144
REMARK   59  A    between atoms: _147  and  _149
REMARK   60  A    between atoms: _149  and  _150
REMARK   61  A    between atoms: _149  and  _152
REMARK   62  A    between atoms: _152  and  _153
REMARK   63  A    between atoms: _153  and  _154
REMARK   64  A    between atoms: _159  and  _161
REMARK   65  A    between atoms: _161  and  _162
REMARK   66  A    between atoms: _164  and  _166
REMARK   67  A    between atoms: _166  and  _167
REMARK   68  A    between atoms: _166  and  _169
REMARK   69  A    between atoms: _172  and  _174
REMARK   70  A    between atoms: _174  and  _175
REMARK   71  A    between atoms: _174  and  _177
REMARK   72  A    between atoms: _177  and  _178
REMARK   73  A    between atoms: _178  and  _179
REMARK   74  A    between atoms: _182  and  _184
REMARK   75  A    between atoms: _184  and  _185
REMARK   76  A    between atoms: _184  and  _187
REMARK   77  A    between atoms: _187  and  _188
REMARK   78  A    between atoms: _191  and  _193
REMARK   79  A    between atoms: _193  and  _194
REMARK   80  A    between atoms: _196  and  _198
REMARK   81  A    between atoms: _198  and  _199
REMARK   82  A    between atoms: _202  and  _204
REMARK   83  A    between atoms: _204  and  _205
REMARK   84  A    between atoms: _204  and  _207
REMARK   85  A    between atoms: _210  and  _212
REMARK   86  A    between atoms: _212  and  _213
REMARK   87  A    between atoms: _212  and  _215
REMARK   88  A    between atoms: _215  and  _216
REMARK   89  A    between atoms: _219  and  _221
REMARK   90  A    between atoms: _221  and  _222
REMARK   91  A    between atoms: _221  and  _224
REMARK   92  A    between atoms: _224  and  _225
REMARK   93  A    between atoms: _230  and  _231
REMARK   94  A    between atoms: _233  and  _235
REMARK   95  A    between atoms: _235  and  _236
REMARK   96  A    between atoms: _235  and  _238
REMARK   97  A    between atoms: _238  and  _239
REMARK   98  A    between atoms: _239  and  _240
REMARK                            x       y       z     vdW  Elec       q    Type
REMARK                         _______ _______ _______ _____ _____    ______ ____
ROOT
ATOM      1  O   HOH     1       1.319  24.967 -10.545  0.00  0.00    +0.000 OA
ENDROOT
TORSDOF 0
REMARK  Name = ../refined-set-2016/2ccb/2ccb_pocket.pdb
REMARK  98 active torsions:
REMARK  status: ('A' for Active; 'I' for Inactive)
REMARK    1  A    between atoms: _1  and  _5
REMARK    2  A    between atoms: _5  and  _6
REMARK    3  A    between atoms: _5  and  _8
REMARK    4  A    between atoms: _11  and  _13
REMARK    5  A    between atoms: _13  and  _14
REMARK    6  A    between atoms: _13  and  _16
REMARK    7  A    between atoms: _16  and  _17
REMARK    8  A    between atoms: _23  and  _25
REMARK    9  A    between atoms: _25  and  _26
REMARK   10  A    between atoms: _25  and  _28
REMARK   11  A    between atoms: _28  and  _29
REMARK   12  A    between atoms: _29  and  _30
REMARK   13  A    between atoms: _30  and  _31
REMARK   14  A    between atoms: _31  and  _32
REMARK   15  A    between atoms: _36  and  _38
REMARK   16  A    between atoms: _38  and  _39
REMARK   17  A    between atoms: _38  and  _41
REMARK   18  A    between atoms: _44  and  _46
REMARK   19  A    between atoms: _46  and  _47
REMARK   20  A    between atoms: _46  and  _49
REMARK   21  A    between atoms: _52  and  _54
REMARK   22  A    between atoms: _54  and  _55
REMARK   23  A    between atoms: _54  and  _57
REMARK   24  A    between atoms: _57  and  _58
REMARK   25  A    between atoms: _68  and  _70
REMARK   26  A    between atoms: _70  and  _71
REMARK   27  A    between atoms: _74  and  _76
REMARK   28  A    between atoms: _76  and  _77
REMARK   29  A    between atoms: _76  and  _79
REMARK   30  A    between atoms: _79  and  _80
REMARK   31  A    between atoms: _80  and  _81
REMARK   32  A    between atoms: _84  and  _86
REMARK   33  A    between atoms: _86  and  _87
REMARK   34  A    between atoms: _86  and  _89
REMARK   35  A    between atoms: _92  and  _94
REMARK   36  A    between atoms: _94  and  _95
REMARK   37  A    between atoms: _94  and  _97
REMARK   38  A    between atoms: _97  and  _98
REMARK   39  A    between atoms: _98  and  _99
REMARK   40  A    between atoms: _104  and  _106
REMARK   41  A    between atoms: _106  and  _107
REMARK   42  A    between atoms: _110  and  _112
REMARK   43  A    between atoms: _112  and  _113
REMARK   44  A    between atoms: _112  and  _115
REMARK   45  A    between atoms: _115  and  _116
REMARK   46  A    between atoms: _116  and  _117
REMARK   47  A    between atoms: _120  and  _122
REMARK   48  A    between atoms: _122  and  _123
REMARK   49  A    between atoms: _122  and  _125
REMARK   50  A    between atoms: _125  and  _126
REMARK   51  A    between atoms: _129  and  _131
REMARK   52  A    between atoms: _131  and  _132
REMARK   53  A    between atoms: _131  and  _134
REMARK   54  A    between atoms: _134  and  _135
REMARK   55  A    between atoms: _138  and  _140
REMARK   56  A    between atoms: _140  and  _141
REMARK   57  A    between atoms: _140  and  _143
REMARK   58  A    between atoms: _143  and  _144
REMARK   59  A    between atoms: _147  and  _149
REMARK   60  A    between atoms: _149  and  _150
REMARK   61  A    between atoms: _149  and  _152
REMARK   62  A    between atoms: _152  and  _153
REMARK   63  A    between atoms: _153  and  _154
REMARK   64  A    between atoms: _159  and  _161
REMARK   65  A    between atoms: _161  and  _162
REMARK   66  A    between atoms: _164  and  _166
REMARK   67  A    between atoms: _166  and  _167
REMARK   68  A    between atoms: _166  and  _169
REMARK   69  A    between atoms: _172  and  _174
REMARK   70  A    between atoms: _174  and  _175
REMARK   71  A    between atoms: _174  and  _177
REMARK   72  A    between atoms: _177  and  _178
REMARK   73  A    between atoms: _178  and  _179
REMARK   74  A    between atoms: _182  and  _184
REMARK   75  A    between atoms: _184  and  _185
REMARK   76  A    between atoms: _184  and  _187
REMARK   77  A    between atoms: _187  and  _188
REMARK   78  A    between atoms: _191  and  _193
REMARK   79  A    between atoms: _193  and  _194
REMARK   80  A    between atoms: _196  and  _198
REMARK   81  A    between atoms: _198  and  _199
REMARK   82  A    between atoms: _202  and  _204
REMARK   83  A    between atoms: _204  and  _205
REMARK   84  A    between atoms: _204  and  _207
REMARK   85  A    between atoms: _210  and  _212
REMARK   86  A    between atoms: _212  and  _213
REMARK   87  A    between atoms: _212  and  _215
REMARK   88  A    between atoms: _215  and  _216
REMARK   89  A    between atoms: _219  and  _221
REMARK   90  A    between atoms: _221  and  _222
REMARK   91  A    between atoms: _221  and  _224
REMARK   92  A    between atoms: _224  and  _225
REMARK   93  A    between atoms: _230  and  _231
REMARK   94  A    between atoms: _233  and  _235
REMARK   95  A    between atoms: _235  and  _236
REMARK   96  A    between atoms: _235  and  _238
REMARK   97  A    between atoms: _238  and  _239
REMARK   98  A    between atoms: _239  and  _240
REMARK                            x       y       z     vdW  Elec       q    Type
REMARK                         _______ _______ _______ _____ _____    ______ ____
ROOT
ATOM      1  O   HOH     1      -0.639  30.133  -2.018  0.00  0.00    +0.000 OA
ENDROOT
TORSDOF 0
REMARK  Name = ../refined-set-2016/2ccb/2ccb_pocket.pdb
REMARK  98 active torsions:
REMARK  status: ('A' for Active; 'I' for Inactive)
REMARK    1  A    between atoms: _1  and  _5
REMARK    2  A    between atoms: _5  and  _6
REMARK    3  A    between atoms: _5  and  _8
REMARK    4  A    between atoms: _11  and  _13
REMARK    5  A    between atoms: _13  and  _14
REMARK    6  A    between atoms: _13  and  _16
REMARK    7  A    between atoms: _16  and  _17
REMARK    8  A    between atoms: _23  and  _25
REMARK    9  A    between atoms: _25  and  _26
REMARK   10  A    between atoms: _25  and  _28
REMARK   11  A    between atoms: _28  and  _29
REMARK   12  A    between atoms: _29  and  _30
REMARK   13  A    between atoms: _30  and  _31
REMARK   14  A    between atoms: _31  and  _32
REMARK   15  A    between atoms: _36  and  _38
REMARK   16  A    between atoms: _38  and  _39
REMARK   17  A    between atoms: _38  and  _41
REMARK   18  A    between atoms: _44  and  _46
REMARK   19  A    between atoms: _46  and  _47
REMARK   20  A    between atoms: _46  and  _49
REMARK   21  A    between atoms: _52  and  _54
REMARK   22  A    between atoms: _54  and  _55
REMARK   23  A    between atoms: _54  and  _57
REMARK   24  A    between atoms: _57  and  _58
REMARK   25  A    between atoms: _68  and  _70
REMARK   26  A    between atoms: _70  and  _71
REMARK   27  A    between atoms: _74  and  _76
REMARK   28  A    between atoms: _76  and  _77
REMARK   29  A    between atoms: _76  and  _79
REMARK   30  A    between atoms: _79  and  _80
REMARK   31  A    between atoms: _80  and  _81
REMARK   32  A    between atoms: _84  and  _86
REMARK   33  A    between atoms: _86  and  _87
REMARK   34  A    between atoms: _86  and  _89
REMARK   35  A    between atoms: _92  and  _94
REMARK   36  A    between atoms: _94  and  _95
REMARK   37  A    between atoms: _94  and  _97
REMARK   38  A    between atoms: _97  and  _98
REMARK   39  A    between atoms: _98  and  _99
REMARK   40  A    between atoms: _104  and  _106
REMARK   41  A    between atoms: _106  and  _107
REMARK   42  A    between atoms: _110  and  _112
REMARK   43  A    between atoms: _112  and  _113
REMARK   44  A    between atoms: _112  and  _115
REMARK   45  A    between atoms: _115  and  _116
REMARK   46  A    between atoms: _116  and  _117
REMARK   47  A    between atoms: _120  and  _122
REMARK   48  A    between atoms: _122  and  _123
REMARK   49  A    between atoms: _122  and  _125
REMARK   50  A    between atoms: _125  and  _126
REMARK   51  A    between atoms: _129  and  _131
REMARK   52  A    between atoms: _131  and  _132
REMARK   53  A    between atoms: _131  and  _134
REMARK   54  A    between atoms: _134  and  _135
REMARK   55  A    between atoms: _138  and  _140
REMARK   56  A    between atoms: _140  and  _141
REMARK   57  A    between atoms: _140  and  _143
REMARK   58  A    between atoms: _143  and  _144
REMARK   59  A    between atoms: _147  and  _149
REMARK   60  A    between atoms: _149  and  _150
REMARK   61  A    between atoms: _149  and  _152
REMARK   62  A    between atoms: _152  and  _153
REMARK   63  A    between atoms: _153  and  _154
REMARK   64  A    between atoms: _159  and  _161
REMARK   65  A    between atoms: _161  and  _162
REMARK   66  A    between atoms: _164  and  _166
REMARK   67  A    between atoms: _166  and  _167
REMARK   68  A    between atoms: _166  and  _169
REMARK   69  A    between atoms: _172  and  _174
REMARK   70  A    between atoms: _174  and  _175
REMARK   71  A    between atoms: _174  and  _177
REMARK   72  A    between atoms: _177  and  _178
REMARK   73  A    between atoms: _178  and  _179
REMARK   74  A    between atoms: _182  and  _184
REMARK   75  A    between atoms: _184  and  _185
REMARK   76  A    between atoms: _184  and  _187
REMARK   77  A    between atoms: _187  and  _188
REMARK   78  A    between atoms: _191  and  _193
REMARK   79  A    between atoms: _193  and  _194
REMARK   80  A    between atoms: _196  and  _198
REMARK   81  A    between atoms: _198  and  _199
REMARK   82  A    between atoms: _202  and  _204
REMARK   83  A    between atoms: _204  and  _205
REMARK   84  A    between atoms: _204  and  _207
REMARK   85  A    between atoms: _210  and  _212
REMARK   86  A    between atoms: _212  and  _213
REMARK   87  A    between atoms: _212  and  _215
REMARK   88  A    between atoms: _215  and  _216
REMARK   89  A    between atoms: _219  and  _221
REMARK   90  A    between atoms: _221  and  _222
REMARK   91  A    between atoms: _221  and  _224
REMARK   92  A    between atoms: _224  and  _225
REMARK   93  A    between atoms: _230  and  _231
REMARK   94  A    between atoms: _233  and  _235
REMARK   95  A    between atoms: _235  and  _236
REMARK   96  A    between atoms: _235  and  _238
REMARK   97  A    between atoms: _238  and  _239
REMARK   98  A    between atoms: _239  and  _240
REMARK                            x       y       z     vdW  Elec       q    Type
REMARK                         _______ _______ _______ _____ _____    ______ ____
ROOT
ATOM      1  O   HOH     1       2.665  27.037  -5.089  0.00  0.00    +0.000 OA
ENDROOT
TORSDOF 0
REMARK  Name = ../refined-set-2016/2ccb/2ccb_pocket.pdb
REMARK  98 active torsions:
REMARK  status: ('A' for Active; 'I' for Inactive)
REMARK    1  A    between atoms: _1  and  _5
REMARK    2  A    between atoms: _5  and  _6
REMARK    3  A    between atoms: _5  and  _8
REMARK    4  A    between atoms: _11  and  _13
REMARK    5  A    between atoms: _13  and  _14
REMARK    6  A    between atoms: _13  and  _16
REMARK    7  A    between atoms: _16  and  _17
REMARK    8  A    between atoms: _23  and  _25
REMARK    9  A    between atoms: _25  and  _26
REMARK   10  A    between atoms: _25  and  _28
REMARK   11  A    between atoms: _28  and  _29
REMARK   12  A    between atoms: _29  and  _30
REMARK   13  A    between atoms: _30  and  _31
REMARK   14  A    between atoms: _31  and  _32
REMARK   15  A    between atoms: _36  and  _38
REMARK   16  A    between atoms: _38  and  _39
REMARK   17  A    between atoms: _38  and  _41
REMARK   18  A    between atoms: _44  and  _46
REMARK   19  A    between atoms: _46  and  _47
REMARK   20  A    between atoms: _46  and  _49
REMARK   21  A    between atoms: _52  and  _54
REMARK   22  A    between atoms: _54  and  _55
REMARK   23  A    between atoms: _54  and  _57
REMARK   24  A    between atoms: _57  and  _58
REMARK   25  A    between atoms: _68  and  _70
REMARK   26  A    between atoms: _70  and  _71
REMARK   27  A    between atoms: _74  and  _76
REMARK   28  A    between atoms: _76  and  _77
REMARK   29  A    between atoms: _76  and  _79
REMARK   30  A    between atoms: _79  and  _80
REMARK   31  A    between atoms: _80  and  _81
REMARK   32  A    between atoms: _84  and  _86
REMARK   33  A    between atoms: _86  and  _87
REMARK   34  A    between atoms: _86  and  _89
REMARK   35  A    between atoms: _92  and  _94
REMARK   36  A    between atoms: _94  and  _95
REMARK   37  A    between atoms: _94  and  _97
REMARK   38  A    between atoms: _97  and  _98
REMARK   39  A    between atoms: _98  and  _99
REMARK   40  A    between atoms: _104  and  _106
REMARK   41  A    between atoms: _106  and  _107
REMARK   42  A    between atoms: _110  and  _112
REMARK   43  A    between atoms: _112  and  _113
REMARK   44  A    between atoms: _112  and  _115
REMARK   45  A    between atoms: _115  and  _116
REMARK   46  A    between atoms: _116  and  _117
REMARK   47  A    between atoms: _120  and  _122
REMARK   48  A    between atoms: _122  and  _123
REMARK   49  A    between atoms: _122  and  _125
REMARK   50  A    between atoms: _125  and  _126
REMARK   51  A    between atoms: _129  and  _131
REMARK   52  A    between atoms: _131  and  _132
REMARK   53  A    between atoms: _131  and  _134
REMARK   54  A    between atoms: _134  and  _135
REMARK   55  A    between atoms: _138  and  _140
REMARK   56  A    between atoms: _140  and  _141
REMARK   57  A    between atoms: _140  and  _143
REMARK   58  A    between atoms: _143  and  _144
REMARK   59  A    between atoms: _147  and  _149
REMARK   60  A    between atoms: _149  and  _150
REMARK   61  A    between atoms: _149  and  _152
REMARK   62  A    between atoms: _152  and  _153
REMARK   63  A    between atoms: _153  and  _154
REMARK   64  A    between atoms: _159  and  _161
REMARK   65  A    between atoms: _161  and  _162
REMARK   66  A    between atoms: _164  and  _166
REMARK   67  A    between atoms: _166  and  _167
REMARK   68  A    between atoms: _166  and  _169
REMARK   69  A    between atoms: _172  and  _174
REMARK   70  A    between atoms: _174  and  _175
REMARK   71  A    between atoms: _174  and  _177
REMARK   72  A    between atoms: _177  and  _178
REMARK   73  A    between atoms: _178  and  _179
REMARK   74  A    between atoms: _182  and  _184
REMARK   75  A    between atoms: _184  and  _185
REMARK   76  A    between atoms: _184  and  _187
REMARK   77  A    between atoms: _187  and  _188
REMARK   78  A    between atoms: _191  and  _193
REMARK   79  A    between atoms: _193  and  _194
REMARK   80  A    between atoms: _196  and  _198
REMARK   81  A    between atoms: _198  and  _199
REMARK   82  A    between atoms: _202  and  _204
REMARK   83  A    between atoms: _204  and  _205
REMARK   84  A    between atoms: _204  and  _207
REMARK   85  A    between atoms: _210  and  _212
REMARK   86  A    between atoms: _212  and  _213
REMARK   87  A    between atoms: _212  and  _215
REMARK   88  A    between atoms: _215  and  _216
REMARK   89  A    between atoms: _219  and  _221
REMARK   90  A    between atoms: _221  and  _222
REMARK   91  A    between atoms: _221  and  _224
REMARK   92  A    between atoms: _224  and  _225
REMARK   93  A    between atoms: _230  and  _231
REMARK   94  A    between atoms: _233  and  _235
REMARK   95  A    between atoms: _235  and  _236
REMARK   96  A    between atoms: _235  and  _238
REMARK   97  A    between atoms: _238  and  _239
REMARK   98  A    between atoms: _239  and  _240
REMARK                            x       y       z     vdW  Elec       q    Type
REMARK                         _______ _______ _______ _____ _____    ______ ____
ROOT
ATOM      1  O   HOH     1      -1.084  16.825   6.109  0.00  0.00    +0.000 OA
ENDROOT
TORSDOF 0
REMARK  Name = ../refined-set-2016/2ccb/2ccb_pocket.pdb
REMARK  98 active torsions:
REMARK  status: ('A' for Active; 'I' for Inactive)
REMARK    1  A    between atoms: _1  and  _5
REMARK    2  A    between atoms: _5  and  _6
REMARK    3  A    between atoms: _5  and  _8
REMARK    4  A    between atoms: _11  and  _13
REMARK    5  A    between atoms: _13  and  _14
REMARK    6  A    between atoms: _13  and  _16
REMARK    7  A    between atoms: _16  and  _17
REMARK    8  A    between atoms: _23  and  _25
REMARK    9  A    between atoms: _25  and  _26
REMARK   10  A    between atoms: _25  and  _28
REMARK   11  A    between atoms: _28  and  _29
REMARK   12  A    between atoms: _29  and  _30
REMARK   13  A    between atoms: _30  and  _31
REMARK   14  A    between atoms: _31  and  _32
REMARK   15  A    between atoms: _36  and  _38
REMARK   16  A    between atoms: _38  and  _39
REMARK   17  A    between atoms: _38  and  _41
REMARK   18  A    between atoms: _44  and  _46
REMARK   19  A    between atoms: _46  and  _47
REMARK   20  A    between atoms: _46  and  _49
REMARK   21  A    between atoms: _52  and  _54
REMARK   22  A    between atoms: _54  and  _55
REMARK   23  A    between atoms: _54  and  _57
REMARK   24  A    between atoms: _57  and  _58
REMARK   25  A    between atoms: _68  and  _70
REMARK   26  A    between atoms: _70  and  _71
REMARK   27  A    between atoms: _74  and  _76
REMARK   28  A    between atoms: _76  and  _77
REMARK   29  A    between atoms: _76  and  _79
REMARK   30  A    between atoms: _79  and  _80
REMARK   31  A    between atoms: _80  and  _81
REMARK   32  A    between atoms: _84  and  _86
REMARK   33  A    between atoms: _86  and  _87
REMARK   34  A    between atoms: _86  and  _89
REMARK   35  A    between atoms: _92  and  _94
REMARK   36  A    between atoms: _94  and  _95
REMARK   37  A    between atoms: _94  and  _97
REMARK   38  A    between atoms: _97  and  _98
REMARK   39  A    between atoms: _98  and  _99
REMARK   40  A    between atoms: _104  and  _106
REMARK   41  A    between atoms: _106  and  _107
REMARK   42  A    between atoms: _110  and  _112
REMARK   43  A    between atoms: _112  and  _113
REMARK   44  A    between atoms: _112  and  _115
REMARK   45  A    between atoms: _115  and  _116
REMARK   46  A    between atoms: _116  and  _117
REMARK   47  A    between atoms: _120  and  _122
REMARK   48  A    between atoms: _122  and  _123
REMARK   49  A    between atoms: _122  and  _125
REMARK   50  A    between atoms: _125  and  _126
REMARK   51  A    between atoms: _129  and  _131
REMARK   52  A    between atoms: _131  and  _132
REMARK   53  A    between atoms: _131  and  _134
REMARK   54  A    between atoms: _134  and  _135
REMARK   55  A    between atoms: _138  and  _140
REMARK   56  A    between atoms: _140  and  _141
REMARK   57  A    between atoms: _140  and  _143
REMARK   58  A    between atoms: _143  and  _144
REMARK   59  A    between atoms: _147  and  _149
REMARK   60  A    between atoms: _149  and  _150
REMARK   61  A    between atoms: _149  and  _152
REMARK   62  A    between atoms: _152  and  _153
REMARK   63  A    between atoms: _153  and  _154
REMARK   64  A    between atoms: _159  and  _161
REMARK   65  A    between atoms: _161  and  _162
REMARK   66  A    between atoms: _164  and  _166
REMARK   67  A    between atoms: _166  and  _167
REMARK   68  A    between atoms: _166  and  _169
REMARK   69  A    between atoms: _172  and  _174
REMARK   70  A    between atoms: _174  and  _175
REMARK   71  A    between atoms: _174  and  _177
REMARK   72  A    between atoms: _177  and  _178
REMARK   73  A    between atoms: _178  and  _179
REMARK   74  A    between atoms: _182  and  _184
REMARK   75  A    between atoms: _184  and  _185
REMARK   76  A    between atoms: _184  and  _187
REMARK   77  A    between atoms: _187  and  _188
REMARK   78  A    between atoms: _191  and  _193
REMARK   79  A    between atoms: _193  and  _194
REMARK   80  A    between atoms: _196  and  _198
REMARK   81  A    between atoms: _198  and  _199
REMARK   82  A    between atoms: _202  and  _204
REMARK   83  A    between atoms: _204  and  _205
REMARK   84  A    between atoms: _204  and  _207
REMARK   85  A    between atoms: _210  and  _212
REMARK   86  A    between atoms: _212  and  _213
REMARK   87  A    between atoms: _212  and  _215
REMARK   88  A    between atoms: _215  and  _216
REMARK   89  A    between atoms: _219  and  _221
REMARK   90  A    between atoms: _221  and  _222
REMARK   91  A    between atoms: _221  and  _224
REMARK   92  A    between atoms: _224  and  _225
REMARK   93  A    between atoms: _230  and  _231
REMARK   94  A    between atoms: _233  and  _235
REMARK   95  A    between atoms: _235  and  _236
REMARK   96  A    between atoms: _235  and  _238
REMARK   97  A    between atoms: _238  and  _239
REMARK   98  A    between atoms: _239  and  _240
REMARK                            x       y       z     vdW  Elec       q    Type
REMARK                         _______ _______ _______ _____ _____    ______ ____
ROOT
ATOM      1  O   HOH     1       3.949  14.393   2.977  0.00  0.00    +0.000 OA
ENDROOT
TORSDOF 0
REMARK  Name = ../refined-set-2016/2ccb/2ccb_pocket.pdb
REMARK  98 active torsions:
REMARK  status: ('A' for Active; 'I' for Inactive)
REMARK    1  A    between atoms: _1  and  _5
REMARK    2  A    between atoms: _5  and  _6
REMARK    3  A    between atoms: _5  and  _8
REMARK    4  A    between atoms: _11  and  _13
REMARK    5  A    between atoms: _13  and  _14
REMARK    6  A    between atoms: _13  and  _16
REMARK    7  A    between atoms: _16  and  _17
REMARK    8  A    between atoms: _23  and  _25
REMARK    9  A    between atoms: _25  and  _26
REMARK   10  A    between atoms: _25  and  _28
REMARK   11  A    between atoms: _28  and  _29
REMARK   12  A    between atoms: _29  and  _30
REMARK   13  A    between atoms: _30  and  _31
REMARK   14  A    between atoms: _31  and  _32
REMARK   15  A    between atoms: _36  and  _38
REMARK   16  A    between atoms: _38  and  _39
REMARK   17  A    between atoms: _38  and  _41
REMARK   18  A    between atoms: _44  and  _46
REMARK   19  A    between atoms: _46  and  _47
REMARK   20  A    between atoms: _46  and  _49
REMARK   21  A    between atoms: _52  and  _54
REMARK   22  A    between atoms: _54  and  _55
REMARK   23  A    between atoms: _54  and  _57
REMARK   24  A    between atoms: _57  and  _58
REMARK   25  A    between atoms: _68  and  _70
REMARK   26  A    between atoms: _70  and  _71
REMARK   27  A    between atoms: _74  and  _76
REMARK   28  A    between atoms: _76  and  _77
REMARK   29  A    between atoms: _76  and  _79
REMARK   30  A    between atoms: _79  and  _80
REMARK   31  A    between atoms: _80  and  _81
REMARK   32  A    between atoms: _84  and  _86
REMARK   33  A    between atoms: _86  and  _87
REMARK   34  A    between atoms: _86  and  _89
REMARK   35  A    between atoms: _92  and  _94
REMARK   36  A    between atoms: _94  and  _95
REMARK   37  A    between atoms: _94  and  _97
REMARK   38  A    between atoms: _97  and  _98
REMARK   39  A    between atoms: _98  and  _99
REMARK   40  A    between atoms: _104  and  _106
REMARK   41  A    between atoms: _106  and  _107
REMARK   42  A    between atoms: _110  and  _112
REMARK   43  A    between atoms: _112  and  _113
REMARK   44  A    between atoms: _112  and  _115
REMARK   45  A    between atoms: _115  and  _116
REMARK   46  A    between atoms: _116  and  _117
REMARK   47  A    between atoms: _120  and  _122
REMARK   48  A    between atoms: _122  and  _123
REMARK   49  A    between atoms: _122  and  _125
REMARK   50  A    between atoms: _125  and  _126
REMARK   51  A    between atoms: _129  and  _131
REMARK   52  A    between atoms: _131  and  _132
REMARK   53  A    between atoms: _131  and  _134
REMARK   54  A    between atoms: _134  and  _135
REMARK   55  A    between atoms: _138  and  _140
REMARK   56  A    between atoms: _140  and  _141
REMARK   57  A    between atoms: _140  and  _143
REMARK   58  A    between atoms: _143  and  _144
REMARK   59  A    between atoms: _147  and  _149
REMARK   60  A    between atoms: _149  and  _150
REMARK   61  A    between atoms: _149  and  _152
REMARK   62  A    between atoms: _152  and  _153
REMARK   63  A    between atoms: _153  and  _154
REMARK   64  A    between atoms: _159  and  _161
REMARK   65  A    between atoms: _161  and  _162
REMARK   66  A    between atoms: _164  and  _166
REMARK   67  A    between atoms: _166  and  _167
REMARK   68  A    between atoms: _166  and  _169
REMARK   69  A    between atoms: _172  and  _174
REMARK   70  A    between atoms: _174  and  _175
REMARK   71  A    between atoms: _174  and  _177
REMARK   72  A    between atoms: _177  and  _178
REMARK   73  A    between atoms: _178  and  _179
REMARK   74  A    between atoms: _182  and  _184
REMARK   75  A    between atoms: _184  and  _185
REMARK   76  A    between atoms: _184  and  _187
REMARK   77  A    between atoms: _187  and  _188
REMARK   78  A    between atoms: _191  and  _193
REMARK   79  A    between atoms: _193  and  _194
REMARK   80  A    between atoms: _196  and  _198
REMARK   81  A    between atoms: _198  and  _199
REMARK   82  A    between atoms: _202  and  _204
REMARK   83  A    between atoms: _204  and  _205
REMARK   84  A    between atoms: _204  and  _207
REMARK   85  A    between atoms: _210  and  _212
REMARK   86  A    between atoms: _212  and  _213
REMARK   87  A    between atoms: _212  and  _215
REMARK   88  A    between atoms: _215  and  _216
REMARK   89  A    between atoms: _219  and  _221
REMARK   90  A    between atoms: _221  and  _222
REMARK   91  A    between atoms: _221  and  _224
REMARK   92  A    between atoms: _224  and  _225
REMARK   93  A    between atoms: _230  and  _231
REMARK   94  A    between atoms: _233  and  _235
REMARK   95  A    between atoms: _235  and  _236
REMARK   96  A    between atoms: _235  and  _238
REMARK   97  A    between atoms: _238  and  _239
REMARK   98  A    between atoms: _239  and  _240
REMARK                            x       y       z     vdW  Elec       q    Type
REMARK                         _______ _______ _______ _____ _____    ______ ____
ROOT
ATOM      1  O   HOH     1       2.792  15.944   6.071  0.00  0.00    +0.000 OA
ENDROOT
TORSDOF 0
REMARK  Name = ../refined-set-2016/2ccb/2ccb_pocket.pdb
REMARK  98 active torsions:
REMARK  status: ('A' for Active; 'I' for Inactive)
REMARK    1  A    between atoms: _1  and  _5
REMARK    2  A    between atoms: _5  and  _6
REMARK    3  A    between atoms: _5  and  _8
REMARK    4  A    between atoms: _11  and  _13
REMARK    5  A    between atoms: _13  and  _14
REMARK    6  A    between atoms: _13  and  _16
REMARK    7  A    between atoms: _16  and  _17
REMARK    8  A    between atoms: _23  and  _25
REMARK    9  A    between atoms: _25  and  _26
REMARK   10  A    between atoms: _25  and  _28
REMARK   11  A    between atoms: _28  and  _29
REMARK   12  A    between atoms: _29  and  _30
REMARK   13  A    between atoms: _30  and  _31
REMARK   14  A    between atoms: _31  and  _32
REMARK   15  A    between atoms: _36  and  _38
REMARK   16  A    between atoms: _38  and  _39
REMARK   17  A    between atoms: _38  and  _41
REMARK   18  A    between atoms: _44  and  _46
REMARK   19  A    between atoms: _46  and  _47
REMARK   20  A    between atoms: _46  and  _49
REMARK   21  A    between atoms: _52  and  _54
REMARK   22  A    between atoms: _54  and  _55
REMARK   23  A    between atoms: _54  and  _57
REMARK   24  A    between atoms: _57  and  _58
REMARK   25  A    between atoms: _68  and  _70
REMARK   26  A    between atoms: _70  and  _71
REMARK   27  A    between atoms: _74  and  _76
REMARK   28  A    between atoms: _76  and  _77
REMARK   29  A    between atoms: _76  and  _79
REMARK   30  A    between atoms: _79  and  _80
REMARK   31  A    between atoms: _80  and  _81
REMARK   32  A    between atoms: _84  and  _86
REMARK   33  A    between atoms: _86  and  _87
REMARK   34  A    between atoms: _86  and  _89
REMARK   35  A    between atoms: _92  and  _94
REMARK   36  A    between atoms: _94  and  _95
REMARK   37  A    between atoms: _94  and  _97
REMARK   38  A    between atoms: _97  and  _98
REMARK   39  A    between atoms: _98  and  _99
REMARK   40  A    between atoms: _104  and  _106
REMARK   41  A    between atoms: _106  and  _107
REMARK   42  A    between atoms: _110  and  _112
REMARK   43  A    between atoms: _112  and  _113
REMARK   44  A    between atoms: _112  and  _115
REMARK   45  A    between atoms: _115  and  _116
REMARK   46  A    between atoms: _116  and  _117
REMARK   47  A    between atoms: _120  and  _122
REMARK   48  A    between atoms: _122  and  _123
REMARK   49  A    between atoms: _122  and  _125
REMARK   50  A    between atoms: _125  and  _126
REMARK   51  A    between atoms: _129  and  _131
REMARK   52  A    between atoms: _131  and  _132
REMARK   53  A    between atoms: _131  and  _134
REMARK   54  A    between atoms: _134  and  _135
REMARK   55  A    between atoms: _138  and  _140
REMARK   56  A    between atoms: _140  and  _141
REMARK   57  A    between atoms: _140  and  _143
REMARK   58  A    between atoms: _143  and  _144
REMARK   59  A    between atoms: _147  and  _149
REMARK   60  A    between atoms: _149  and  _150
REMARK   61  A    between atoms: _149  and  _152
REMARK   62  A    between atoms: _152  and  _153
REMARK   63  A    between atoms: _153  and  _154
REMARK   64  A    between atoms: _159  and  _161
REMARK   65  A    between atoms: _161  and  _162
REMARK   66  A    between atoms: _164  and  _166
REMARK   67  A    between atoms: _166  and  _167
REMARK   68  A    between atoms: _166  and  _169
REMARK   69  A    between atoms: _172  and  _174
REMARK   70  A    between atoms: _174  and  _175
REMARK   71  A    between atoms: _174  and  _177
REMARK   72  A    between atoms: _177  and  _178
REMARK   73  A    between atoms: _178  and  _179
REMARK   74  A    between atoms: _182  and  _184
REMARK   75  A    between atoms: _184  and  _185
REMARK   76  A    between atoms: _184  and  _187
REMARK   77  A    between atoms: _187  and  _188
REMARK   78  A    between atoms: _191  and  _193
REMARK   79  A    between atoms: _193  and  _194
REMARK   80  A    between atoms: _196  and  _198
REMARK   81  A    between atoms: _198  and  _199
REMARK   82  A    between atoms: _202  and  _204
REMARK   83  A    between atoms: _204  and  _205
REMARK   84  A    between atoms: _204  and  _207
REMARK   85  A    between atoms: _210  and  _212
REMARK   86  A    between atoms: _212  and  _213
REMARK   87  A    between atoms: _212  and  _215
REMARK   88  A    between atoms: _215  and  _216
REMARK   89  A    between atoms: _219  and  _221
REMARK   90  A    between atoms: _221  and  _222
REMARK   91  A    between atoms: _221  and  _224
REMARK   92  A    between atoms: _224  and  _225
REMARK   93  A    between atoms: _230  and  _231
REMARK   94  A    between atoms: _233  and  _235
REMARK   95  A    between atoms: _235  and  _236
REMARK   96  A    between atoms: _235  and  _238
REMARK   97  A    between atoms: _238  and  _239
REMARK   98  A    between atoms: _239  and  _240
REMARK                            x       y       z     vdW  Elec       q    Type
REMARK                         _______ _______ _______ _____ _____    ______ ____
ROOT
ATOM      1  O   HOH     1       5.424  26.408  -0.583  0.00  0.00    +0.000 OA
ENDROOT
TORSDOF 0
REMARK  Name = ../refined-set-2016/2ccb/2ccb_pocket.pdb
REMARK  98 active torsions:
REMARK  status: ('A' for Active; 'I' for Inactive)
REMARK    1  A    between atoms: _1  and  _5
REMARK    2  A    between atoms: _5  and  _6
REMARK    3  A    between atoms: _5  and  _8
REMARK    4  A    between atoms: _11  and  _13
REMARK    5  A    between atoms: _13  and  _14
REMARK    6  A    between atoms: _13  and  _16
REMARK    7  A    between atoms: _16  and  _17
REMARK    8  A    between atoms: _23  and  _25
REMARK    9  A    between atoms: _25  and  _26
REMARK   10  A    between atoms: _25  and  _28
REMARK   11  A    between atoms: _28  and  _29
REMARK   12  A    between atoms: _29  and  _30
REMARK   13  A    between atoms: _30  and  _31
REMARK   14  A    between atoms: _31  and  _32
REMARK   15  A    between atoms: _36  and  _38
REMARK   16  A    between atoms: _38  and  _39
REMARK   17  A    between atoms: _38  and  _41
REMARK   18  A    between atoms: _44  and  _46
REMARK   19  A    between atoms: _46  and  _47
REMARK   20  A    between atoms: _46  and  _49
REMARK   21  A    between atoms: _52  and  _54
REMARK   22  A    between atoms: _54  and  _55
REMARK   23  A    between atoms: _54  and  _57
REMARK   24  A    between atoms: _57  and  _58
REMARK   25  A    between atoms: _68  and  _70
REMARK   26  A    between atoms: _70  and  _71
REMARK   27  A    between atoms: _74  and  _76
REMARK   28  A    between atoms: _76  and  _77
REMARK   29  A    between atoms: _76  and  _79
REMARK   30  A    between atoms: _79  and  _80
REMARK   31  A    between atoms: _80  and  _81
REMARK   32  A    between atoms: _84  and  _86
REMARK   33  A    between atoms: _86  and  _87
REMARK   34  A    between atoms: _86  and  _89
REMARK   35  A    between atoms: _92  and  _94
REMARK   36  A    between atoms: _94  and  _95
REMARK   37  A    between atoms: _94  and  _97
REMARK   38  A    between atoms: _97  and  _98
REMARK   39  A    between atoms: _98  and  _99
REMARK   40  A    between atoms: _104  and  _106
REMARK   41  A    between atoms: _106  and  _107
REMARK   42  A    between atoms: _110  and  _112
REMARK   43  A    between atoms: _112  and  _113
REMARK   44  A    between atoms: _112  and  _115
REMARK   45  A    between atoms: _115  and  _116
REMARK   46  A    between atoms: _116  and  _117
REMARK   47  A    between atoms: _120  and  _122
REMARK   48  A    between atoms: _122  and  _123
REMARK   49  A    between atoms: _122  and  _125
REMARK   50  A    between atoms: _125  and  _126
REMARK   51  A    between atoms: _129  and  _131
REMARK   52  A    between atoms: _131  and  _132
REMARK   53  A    between atoms: _131  and  _134
REMARK   54  A    between atoms: _134  and  _135
REMARK   55  A    between atoms: _138  and  _140
REMARK   56  A    between atoms: _140  and  _141
REMARK   57  A    between atoms: _140  and  _143
REMARK   58  A    between atoms: _143  and  _144
REMARK   59  A    between atoms: _147  and  _149
REMARK   60  A    between atoms: _149  and  _150
REMARK   61  A    between atoms: _149  and  _152
REMARK   62  A    between atoms: _152  and  _153
REMARK   63  A    between atoms: _153  and  _154
REMARK   64  A    between atoms: _159  and  _161
REMARK   65  A    between atoms: _161  and  _162
REMARK   66  A    between atoms: _164  and  _166
REMARK   67  A    between atoms: _166  and  _167
REMARK   68  A    between atoms: _166  and  _169
REMARK   69  A    between atoms: _172  and  _174
REMARK   70  A    between atoms: _174  and  _175
REMARK   71  A    between atoms: _174  and  _177
REMARK   72  A    between atoms: _177  and  _178
REMARK   73  A    between atoms: _178  and  _179
REMARK   74  A    between atoms: _182  and  _184
REMARK   75  A    between atoms: _184  and  _185
REMARK   76  A    between atoms: _184  and  _187
REMARK   77  A    between atoms: _187  and  _188
REMARK   78  A    between atoms: _191  and  _193
REMARK   79  A    between atoms: _193  and  _194
REMARK   80  A    between atoms: _196  and  _198
REMARK   81  A    between atoms: _198  and  _199
REMARK   82  A    between atoms: _202  and  _204
REMARK   83  A    between atoms: _204  and  _205
REMARK   84  A    between atoms: _204  and  _207
REMARK   85  A    between atoms: _210  and  _212
REMARK   86  A    between atoms: _212  and  _213
REMARK   87  A    between atoms: _212  and  _215
REMARK   88  A    between atoms: _215  and  _216
REMARK   89  A    between atoms: _219  and  _221
REMARK   90  A    between atoms: _221  and  _222
REMARK   91  A    between atoms: _221  and  _224
REMARK   92  A    between atoms: _224  and  _225
REMARK   93  A    between atoms: _230  and  _231
REMARK   94  A    between atoms: _233  and  _235
REMARK   95  A    between atoms: _235  and  _236
REMARK   96  A    between atoms: _235  and  _238
REMARK   97  A    between atoms: _238  and  _239
REMARK   98  A    between atoms: _239  and  _240
REMARK                            x       y       z     vdW  Elec       q    Type
REMARK                         _______ _______ _______ _____ _____    ______ ____
ROOT
ATOM      1  O   HOH     1       3.111  25.458   7.574  0.00  0.00    +0.000 OA
ENDROOT
TORSDOF 0
REMARK  Name = ../refined-set-2016/2ccb/2ccb_pocket.pdb
REMARK  98 active torsions:
REMARK  status: ('A' for Active; 'I' for Inactive)
REMARK    1  A    between atoms: _1  and  _5
REMARK    2  A    between atoms: _5  and  _6
REMARK    3  A    between atoms: _5  and  _8
REMARK    4  A    between atoms: _11  and  _13
REMARK    5  A    between atoms: _13  and  _14
REMARK    6  A    between atoms: _13  and  _16
REMARK    7  A    between atoms: _16  and  _17
REMARK    8  A    between atoms: _23  and  _25
REMARK    9  A    between atoms: _25  and  _26
REMARK   10  A    between atoms: _25  and  _28
REMARK   11  A    between atoms: _28  and  _29
REMARK   12  A    between atoms: _29  and  _30
REMARK   13  A    between atoms: _30  and  _31
REMARK   14  A    between atoms: _31  and  _32
REMARK   15  A    between atoms: _36  and  _38
REMARK   16  A    between atoms: _38  and  _39
REMARK   17  A    between atoms: _38  and  _41
REMARK   18  A    between atoms: _44  and  _46
REMARK   19  A    between atoms: _46  and  _47
REMARK   20  A    between atoms: _46  and  _49
REMARK   21  A    between atoms: _52  and  _54
REMARK   22  A    between atoms: _54  and  _55
REMARK   23  A    between atoms: _54  and  _57
REMARK   24  A    between atoms: _57  and  _58
REMARK   25  A    between atoms: _68  and  _70
REMARK   26  A    between atoms: _70  and  _71
REMARK   27  A    between atoms: _74  and  _76
REMARK   28  A    between atoms: _76  and  _77
REMARK   29  A    between atoms: _76  and  _79
REMARK   30  A    between atoms: _79  and  _80
REMARK   31  A    between atoms: _80  and  _81
REMARK   32  A    between atoms: _84  and  _86
REMARK   33  A    between atoms: _86  and  _87
REMARK   34  A    between atoms: _86  and  _89
REMARK   35  A    between atoms: _92  and  _94
REMARK   36  A    between atoms: _94  and  _95
REMARK   37  A    between atoms: _94  and  _97
REMARK   38  A    between atoms: _97  and  _98
REMARK   39  A    between atoms: _98  and  _99
REMARK   40  A    between atoms: _104  and  _106
REMARK   41  A    between atoms: _106  and  _107
REMARK   42  A    between atoms: _110  and  _112
REMARK   43  A    between atoms: _112  and  _113
REMARK   44  A    between atoms: _112  and  _115
REMARK   45  A    between atoms: _115  and  _116
REMARK   46  A    between atoms: _116  and  _117
REMARK   47  A    between atoms: _120  and  _122
REMARK   48  A    between atoms: _122  and  _123
REMARK   49  A    between atoms: _122  and  _125
REMARK   50  A    between atoms: _125  and  _126
REMARK   51  A    between atoms: _129  and  _131
REMARK   52  A    between atoms: _131  and  _132
REMARK   53  A    between atoms: _131  and  _134
REMARK   54  A    between atoms: _134  and  _135
REMARK   55  A    between atoms: _138  and  _140
REMARK   56  A    between atoms: _140  and  _141
REMARK   57  A    between atoms: _140  and  _143
REMARK   58  A    between atoms: _143  and  _144
REMARK   59  A    between atoms: _147  and  _149
REMARK   60  A    between atoms: _149  and  _150
REMARK   61  A    between atoms: _149  and  _152
REMARK   62  A    between atoms: _152  and  _153
REMARK   63  A    between atoms: _153  and  _154
REMARK   64  A    between atoms: _159  and  _161
REMARK   65  A    between atoms: _161  and  _162
REMARK   66  A    between atoms: _164  and  _166
REMARK   67  A    between atoms: _166  and  _167
REMARK   68  A    between atoms: _166  and  _169
REMARK   69  A    between atoms: _172  and  _174
REMARK   70  A    between atoms: _174  and  _175
REMARK   71  A    between atoms: _174  and  _177
REMARK   72  A    between atoms: _177  and  _178
REMARK   73  A    between atoms: _178  and  _179
REMARK   74  A    between atoms: _182  and  _184
REMARK   75  A    between atoms: _184  and  _185
REMARK   76  A    between atoms: _184  and  _187
REMARK   77  A    between atoms: _187  and  _188
REMARK   78  A    between atoms: _191  and  _193
REMARK   79  A    between atoms: _193  and  _194
REMARK   80  A    between atoms: _196  and  _198
REMARK   81  A    between atoms: _198  and  _199
REMARK   82  A    between atoms: _202  and  _204
REMARK   83  A    between atoms: _204  and  _205
REMARK   84  A    between atoms: _204  and  _207
REMARK   85  A    between atoms: _210  and  _212
REMARK   86  A    between atoms: _212  and  _213
REMARK   87  A    between atoms: _212  and  _215
REMARK   88  A    between atoms: _215  and  _216
REMARK   89  A    between atoms: _219  and  _221
REMARK   90  A    between atoms: _221  and  _222
REMARK   91  A    between atoms: _221  and  _224
REMARK   92  A    between atoms: _224  and  _225
REMARK   93  A    between atoms: _230  and  _231
REMARK   94  A    between atoms: _233  and  _235
REMARK   95  A    between atoms: _235  and  _236
REMARK   96  A    between atoms: _235  and  _238
REMARK   97  A    between atoms: _238  and  _239
REMARK   98  A    between atoms: _239  and  _240
REMARK                            x       y       z     vdW  Elec       q    Type
REMARK                         _______ _______ _______ _____ _____    ______ ____
ROOT
ATOM      1  O   HOH     1       1.978  17.883   5.615  0.00  0.00    +0.000 OA
ENDROOT
TORSDOF 0
REMARK  Name = ../refined-set-2016/2ccb/2ccb_pocket.pdb
REMARK  98 active torsions:
REMARK  status: ('A' for Active; 'I' for Inactive)
REMARK    1  A    between atoms: _1  and  _5
REMARK    2  A    between atoms: _5  and  _6
REMARK    3  A    between atoms: _5  and  _8
REMARK    4  A    between atoms: _11  and  _13
REMARK    5  A    between atoms: _13  and  _14
REMARK    6  A    between atoms: _13  and  _16
REMARK    7  A    between atoms: _16  and  _17
REMARK    8  A    between atoms: _23  and  _25
REMARK    9  A    between atoms: _25  and  _26
REMARK   10  A    between atoms: _25  and  _28
REMARK   11  A    between atoms: _28  and  _29
REMARK   12  A    between atoms: _29  and  _30
REMARK   13  A    between atoms: _30  and  _31
REMARK   14  A    between atoms: _31  and  _32
REMARK   15  A    between atoms: _36  and  _38
REMARK   16  A    between atoms: _38  and  _39
REMARK   17  A    between atoms: _38  and  _41
REMARK   18  A    between atoms: _44  and  _46
REMARK   19  A    between atoms: _46  and  _47
REMARK   20  A    between atoms: _46  and  _49
REMARK   21  A    between atoms: _52  and  _54
REMARK   22  A    between atoms: _54  and  _55
REMARK   23  A    between atoms: _54  and  _57
REMARK   24  A    between atoms: _57  and  _58
REMARK   25  A    between atoms: _68  and  _70
REMARK   26  A    between atoms: _70  and  _71
REMARK   27  A    between atoms: _74  and  _76
REMARK   28  A    between atoms: _76  and  _77
REMARK   29  A    between atoms: _76  and  _79
REMARK   30  A    between atoms: _79  and  _80
REMARK   31  A    between atoms: _80  and  _81
REMARK   32  A    between atoms: _84  and  _86
REMARK   33  A    between atoms: _86  and  _87
REMARK   34  A    between atoms: _86  and  _89
REMARK   35  A    between atoms: _92  and  _94
REMARK   36  A    between atoms: _94  and  _95
REMARK   37  A    between atoms: _94  and  _97
REMARK   38  A    between atoms: _97  and  _98
REMARK   39  A    between atoms: _98  and  _99
REMARK   40  A    between atoms: _104  and  _106
REMARK   41  A    between atoms: _106  and  _107
REMARK   42  A    between atoms: _110  and  _112
REMARK   43  A    between atoms: _112  and  _113
REMARK   44  A    between atoms: _112  and  _115
REMARK   45  A    between atoms: _115  and  _116
REMARK   46  A    between atoms: _116  and  _117
REMARK   47  A    between atoms: _120  and  _122
REMARK   48  A    between atoms: _122  and  _123
REMARK   49  A    between atoms: _122  and  _125
REMARK   50  A    between atoms: _125  and  _126
REMARK   51  A    between atoms: _129  and  _131
REMARK   52  A    between atoms: _131  and  _132
REMARK   53  A    between atoms: _131  and  _134
REMARK   54  A    between atoms: _134  and  _135
REMARK   55  A    between atoms: _138  and  _140
REMARK   56  A    between atoms: _140  and  _141
REMARK   57  A    between atoms: _140  and  _143
REMARK   58  A    between atoms: _143  and  _144
REMARK   59  A    between atoms: _147  and  _149
REMARK   60  A    between atoms: _149  and  _150
REMARK   61  A    between atoms: _149  and  _152
REMARK   62  A    between atoms: _152  and  _153
REMARK   63  A    between atoms: _153  and  _154
REMARK   64  A    between atoms: _159  and  _161
REMARK   65  A    between atoms: _161  and  _162
REMARK   66  A    between atoms: _164  and  _166
REMARK   67  A    between atoms: _166  and  _167
REMARK   68  A    between atoms: _166  and  _169
REMARK   69  A    between atoms: _172  and  _174
REMARK   70  A    between atoms: _174  and  _175
REMARK   71  A    between atoms: _174  and  _177
REMARK   72  A    between atoms: _177  and  _178
REMARK   73  A    between atoms: _178  and  _179
REMARK   74  A    between atoms: _182  and  _184
REMARK   75  A    between atoms: _184  and  _185
REMARK   76  A    between atoms: _184  and  _187
REMARK   77  A    between atoms: _187  and  _188
REMARK   78  A    between atoms: _191  and  _193
REMARK   79  A    between atoms: _193  and  _194
REMARK   80  A    between atoms: _196  and  _198
REMARK   81  A    between atoms: _198  and  _199
REMARK   82  A    between atoms: _202  and  _204
REMARK   83  A    between atoms: _204  and  _205
REMARK   84  A    between atoms: _204  and  _207
REMARK   85  A    between atoms: _210  and  _212
REMARK   86  A    between atoms: _212  and  _213
REMARK   87  A    between atoms: _212  and  _215
REMARK   88  A    between atoms: _215  and  _216
REMARK   89  A    between atoms: _219  and  _221
REMARK   90  A    between atoms: _221  and  _222
REMARK   91  A    between atoms: _221  and  _224
REMARK   92  A    between atoms: _224  and  _225
REMARK   93  A    between atoms: _230  and  _231
REMARK   94  A    between atoms: _233  and  _235
REMARK   95  A    between atoms: _235  and  _236
REMARK   96  A    between atoms: _235  and  _238
REMARK   97  A    between atoms: _238  and  _239
REMARK   98  A    between atoms: _239  and  _240
REMARK                            x       y       z     vdW  Elec       q    Type
REMARK                         _______ _______ _______ _____ _____    ______ ____
ROOT
ATOM      1  O   HOH     1      -0.271  14.458   5.198  0.00  0.00    +0.000 OA
ENDROOT
TORSDOF 0
